LTspice 24.1.9 for Windows
Circuit: C:\Users\herra\Desktop\ASSD\TP1\TP1-ASSD\Simulaciones\Draft6.net
Start Time: Mon Apr 13 22:04:51 2026
solver = Normal
Maximum thread count: 16
tnom = 27
temp = 27
method = modified trap
Direct Newton iteration for .op point succeeded.
Total elapsed time: 0.110 seconds.

Files loaded:
C:\Users\herra\Desktop\ASSD\TP1\TP1-ASSD\Simulaciones\Draft6.net
C:\Users\herra\AppData\Local\LTspice\lib\cmp\standard.bjt
C:\Users\herra\AppData\Local\LTspice\lib\sub\TCLib\vcc.lib
C:\Users\herra\AppData\Local\LTspice\lib\sub\TCLib\xtal.lib

