LTspice 24.1.9 for Windows
Circuit: C:\Users\herra\Desktop\ASSD\TP1\TP1-ASSD\Simulaciones\Draft4.net
Start Time: Mon Apr 13 16:08:00 2026
solver = Normal
Maximum thread count: 16
tnom = 27
temp = 27
method = modified trap
Direct Newton iteration for .op point succeeded.
Total elapsed time: 1.048 seconds.
R1: Resistance must not be zero.