LTspice 24.1.9 for Windows
Circuit: C:\Users\herra\Desktop\ASSD\TP1\TP1-ASSD\Simulaciones\Draft2.net
Start Time: Tue Apr 14 15:41:30 2026
solver = Normal
Maximum thread count: 16
tnom = 27
temp = 27
method = modified trap
Direct Newton iteration for .op point succeeded.
Total elapsed time: 0.059 seconds.

Files loaded:
C:\Users\herra\Desktop\ASSD\TP1\TP1-ASSD\Simulaciones\Draft2.net
C:\Users\herra\AppData\Local\LTspice\lib\sub\TCLib\OA_Ideal.lib

