LTspice 24.1.9 for Windows
Circuit: C:\Users\herra\Desktop\ASSD\TP1\TP1-ASSD\Simulaciones\Draft1.net
Start Time: Mon Apr 13 22:54:39 2026
solver = Normal
Maximum thread count: 16
tnom = 27
temp = 27
method = modified trap
Direct Newton iteration for .op point succeeded.
Warning: Simulation tolerance relaxed to achieve convergence from 5.2015007082283089e-03 to 5.2015007082283193e-03 seconds.
Warning: Simulation tolerance relaxed to achieve convergence from 5.2015007082311616e-03 to 5.2015007082311720e-03 seconds.
Warning: Simulation tolerance relaxed to achieve convergence from 5.2015007082520520e-03 to 5.2015007082520624e-03 seconds.
Warning: Simulation tolerance relaxed to achieve convergence from 5.2015007082520728e-03 to 5.2015007082520832e-03 seconds.
Warning: Simulation tolerance relaxed to achieve convergence from 5.2015007082521535e-03 to 5.2015007082521639e-03 seconds.
Warning: Simulation tolerance relaxed to achieve convergence from 5.2015007082521639e-03 to 5.2015007082521743e-03 seconds.
Warning: Simulation tolerance relaxed to achieve convergence from 5.2015007082521743e-03 to 5.2015007082521847e-03 seconds.
Warning: Simulation tolerance relaxed to achieve convergence from 5.2015007082522151e-03 to 5.2015007082522255e-03 seconds.
Warning: Simulation tolerance relaxed to achieve convergence from 5.2015007082527077e-03 to 5.2015007082527182e-03 seconds.
Warning: Simulation tolerance relaxed to achieve convergence from 5.2015007082564192e-03 to 5.2015007082564296e-03 seconds.
Warning: Simulation tolerance relaxed to achieve convergence from 5.2015007082564296e-03 to 5.2015007082564400e-03 seconds.
Warning: Simulation tolerance relaxed to achieve convergence from 5.2015007082564400e-03 to 5.2015007082564504e-03 seconds.
Warning: Simulation tolerance relaxed to achieve convergence from 5.2015007082565103e-03 to 5.2015007082565207e-03 seconds.
Warning: Simulation tolerance relaxed to achieve convergence from 5.2015007082566803e-03 to 5.2015007082566907e-03 seconds.
Warning: Simulation tolerance relaxed to achieve convergence from 5.2015007082566907e-03 to 5.2015007082567011e-03 seconds.
Warning: Simulation tolerance relaxed to achieve convergence from 5.2015007082567011e-03 to 5.2015007082567115e-03 seconds.
Warning: Simulation tolerance relaxed to achieve convergence from 5.2015007082592511e-03 to 5.2015007082592615e-03 seconds.
Warning: Simulation tolerance relaxed to achieve convergence from 5.2015007082606233e-03 to 5.2015007082606337e-03 seconds.
Warning: Simulation tolerance relaxed to achieve convergence from 5.2015007082606337e-03 to 5.2015007082606441e-03 seconds.
Warning: Simulation tolerance relaxed to achieve convergence from 5.2015007082606441e-03 to 5.2015007082606545e-03 seconds.
Warning: Simulation tolerance relaxed to achieve convergence from 5.2015007082606545e-03 to 5.2015007082606649e-03 seconds.
Warning: Simulation tolerance relaxed to achieve convergence from 5.2015007082615045e-03 to 5.2015007082615149e-03 seconds.
Warning: Simulation tolerance relaxed to achieve convergence from 5.2015007082615453e-03 to 5.2015007082615557e-03 seconds.
Warning: Simulation tolerance relaxed to achieve convergence from 5.2015007082618758e-03 to 5.2015007082618862e-03 seconds.
Warning: Simulation tolerance relaxed to achieve convergence from 5.2015007082618862e-03 to 5.2015007082618966e-03 seconds.
Warning: Simulation tolerance relaxed to achieve convergence from 5.2015007082625462e-03 to 5.2015007082625566e-03 seconds.
Warning: Simulation tolerance relaxed to achieve convergence from 5.2015007082626876e-03 to 5.2015007082626980e-03 seconds.
Warning: Simulation tolerance relaxed to achieve convergence from 5.2015007082626980e-03 to 5.2015007082627084e-03 seconds.
Warning: Simulation tolerance relaxed to achieve convergence from 5.2015007083323263e-03 to 5.2015007083323368e-03 seconds.
Warning: Simulation tolerance relaxed to achieve convergence from 5.2015007083323775e-03 to 5.2015007083323879e-03 seconds.
Warning: Simulation tolerance relaxed to achieve convergence from 5.2015007083323879e-03 to 5.2015007083323983e-03 seconds.
Warning: Simulation tolerance relaxed to achieve convergence from 5.2015007083324183e-03 to 5.2015007083324287e-03 seconds.
Warning: Simulation tolerance relaxed to achieve convergence from 5.2015007083327678e-03 to 5.2015007083327782e-03 seconds.
Warning: Simulation tolerance relaxed to achieve convergence from 5.2015007083343473e-03 to 5.2015007083343577e-03 seconds.
Warning: Simulation tolerance relaxed to achieve convergence from 5.2015007083345173e-03 to 5.2015007083345277e-03 seconds.
Warning: Simulation tolerance relaxed to achieve convergence from 5.2015007083345277e-03 to 5.2015007083345381e-03 seconds.
Warning: Simulation tolerance relaxed to achieve convergence from 5.2015007083351574e-03 to 5.2015007083351678e-03 seconds.
Warning: Simulation tolerance relaxed to achieve convergence from 5.2015007084001853e-03 to 5.2015007084001957e-03 seconds.
Warning: Simulation tolerance relaxed to achieve convergence from 5.2015007084002364e-03 to 5.2015007084002468e-03 seconds.
Warning: Simulation tolerance relaxed to achieve convergence from 5.2015007084003370e-03 to 5.2015007084003475e-03 seconds.
Warning: Simulation tolerance relaxed to achieve convergence from 5.2015007084004281e-03 to 5.2015007084004385e-03 seconds.
Warning: Simulation tolerance relaxed to achieve convergence from 5.2015007084004888e-03 to 5.2015007084004992e-03 seconds.
Warning: Simulation tolerance relaxed to achieve convergence from 5.2015007084005201e-03 to 5.2015007084005305e-03 seconds.
Warning: Simulation tolerance relaxed to achieve convergence from 5.2015007084005903e-03 to 5.2015007084006007e-03 seconds.
Warning: Simulation tolerance relaxed to achieve convergence from 5.2015007084006007e-03 to 5.2015007084006111e-03 seconds.
Warning: Simulation tolerance relaxed to achieve convergence from 5.2015007084006111e-03 to 5.2015007084006215e-03 seconds.
Warning: Simulation tolerance relaxed to achieve convergence from 5.2015007084006814e-03 to 5.2015007084006918e-03 seconds.
Warning: Simulation tolerance relaxed to achieve convergence from 5.2015007084006918e-03 to 5.2015007084007022e-03 seconds.
Warning: Simulation tolerance relaxed to achieve convergence from 5.2015007084009537e-03 to 5.2015007084009642e-03 seconds.
Warning: Simulation tolerance relaxed to achieve convergence from 5.2015007084010353e-03 to 5.2015007084010457e-03 seconds.
Warning: Simulation tolerance relaxed to achieve convergence from 5.2015007084010457e-03 to 5.2015007084010561e-03 seconds.
Warning: Simulation tolerance relaxed to achieve convergence from 5.2015007084010561e-03 to 5.2015007084010665e-03 seconds.
Warning: Simulation tolerance relaxed to achieve convergence from 5.2015007084010665e-03 to 5.2015007084010769e-03 seconds.
Warning: Simulation tolerance relaxed to achieve convergence from 5.2015007084010769e-03 to 5.2015007084010873e-03 seconds.
Warning: Simulation tolerance relaxed to achieve convergence from 5.2015007084010977e-03 to 5.2015007084011081e-03 seconds.
Warning: Simulation tolerance relaxed to achieve convergence from 5.2015007084011081e-03 to 5.2015007084011185e-03 seconds.
Warning: Simulation tolerance relaxed to achieve convergence from 5.2015007084011290e-03 to 5.2015007084011394e-03 seconds.
Warning: Simulation tolerance relaxed to achieve convergence from 5.2015007084011394e-03 to 5.2015007084011498e-03 seconds.
Warning: Simulation tolerance relaxed to achieve convergence from 5.2015007084011498e-03 to 5.2015007084011602e-03 seconds.
Warning: Simulation tolerance relaxed to achieve convergence from 5.2015007084011602e-03 to 5.2015007084011706e-03 seconds.
Warning: Simulation tolerance relaxed to achieve convergence from 5.2015007084013102e-03 to 5.2015007084013206e-03 seconds.
Warning: Simulation tolerance relaxed to achieve convergence from 5.2015007084013206e-03 to 5.2015007084013310e-03 seconds.
Warning: Simulation tolerance relaxed to achieve convergence from 5.2015007084013310e-03 to 5.2015007084013415e-03 seconds.
Warning: Simulation tolerance relaxed to achieve convergence from 5.2015007084029417e-03 to 5.2015007084029521e-03 seconds.
Warning: Simulation tolerance relaxed to achieve convergence from 5.2015007084030224e-03 to 5.2015007084030328e-03 seconds.
Warning: Simulation tolerance relaxed to achieve convergence from 5.2015007084030831e-03 to 5.2015007084030935e-03 seconds.
Warning: Simulation tolerance relaxed to achieve convergence from 5.2015007084056123e-03 to 5.2015007084056228e-03 seconds.
Warning: Simulation tolerance relaxed to achieve convergence from 5.2015007084060027e-03 to 5.2015007084060131e-03 seconds.
Warning: Simulation tolerance relaxed to achieve convergence from 5.2015007084060131e-03 to 5.2015007084060235e-03 seconds.
Warning: Simulation tolerance relaxed to achieve convergence from 5.2015007084060235e-03 to 5.2015007084060339e-03 seconds.
Warning: Simulation tolerance relaxed to achieve convergence from 5.2015007084060443e-03 to 5.2015007084060547e-03 seconds.
Warning: Simulation tolerance relaxed to achieve convergence from 5.2015007084060746e-03 to 5.2015007084060851e-03 seconds.
Warning: Simulation tolerance relaxed to achieve convergence from 5.2015007084063947e-03 to 5.2015007084064051e-03 seconds.
Warning: Simulation tolerance relaxed to achieve convergence from 5.2015007084064650e-03 to 5.2015007084064754e-03 seconds.
Warning: Simulation tolerance relaxed to achieve convergence from 5.2015007084065959e-03 to 5.2015007084066063e-03 seconds.
Warning: Simulation tolerance relaxed to achieve convergence from 5.2015007084073054e-03 to 5.2015007084073158e-03 seconds.
Warning: Simulation tolerance relaxed to achieve convergence from 5.2015007084073158e-03 to 5.2015007084073262e-03 seconds.
Warning: Simulation tolerance relaxed to achieve convergence from 5.2015007084073262e-03 to 5.2015007084073367e-03 seconds.
Warning: Simulation tolerance relaxed to achieve convergence from 5.2015007084073367e-03 to 5.2015007084073471e-03 seconds.
Warning: Simulation tolerance relaxed to achieve convergence from 5.2015007084073471e-03 to 5.2015007084073575e-03 seconds.
Warning: Simulation tolerance relaxed to achieve convergence from 5.2015007084075882e-03 to 5.2015007084075986e-03 seconds.
Warning: Simulation tolerance relaxed to achieve convergence from 5.2015007084076689e-03 to 5.2015007084076793e-03 seconds.
Warning: Simulation tolerance relaxed to achieve convergence from 5.2015007084077400e-03 to 5.2015007084077504e-03 seconds.
Warning: Simulation tolerance relaxed to achieve convergence from 5.2015007084081216e-03 to 5.2015007084081320e-03 seconds.
Warning: Simulation tolerance relaxed to achieve convergence from 5.2015007084084616e-03 to 5.2015007084084720e-03 seconds.
Warning: Simulation tolerance relaxed to achieve convergence from 5.2015007084085319e-03 to 5.2015007084085423e-03 seconds.
Warning: Simulation tolerance relaxed to achieve convergence from 5.2015007084087036e-03 to 5.2015007084087140e-03 seconds.
Warning: Simulation tolerance relaxed to achieve convergence from 5.2015007084087140e-03 to 5.2015007084087244e-03 seconds.
Warning: Simulation tolerance relaxed to achieve convergence from 5.2015007084087244e-03 to 5.2015007084087348e-03 seconds.
Warning: Simulation tolerance relaxed to achieve convergence from 5.2015007084090167e-03 to 5.2015007084090271e-03 seconds.
Warning: Simulation tolerance relaxed to achieve convergence from 5.2015007084091286e-03 to 5.2015007084091390e-03 seconds.
Warning: Simulation tolerance relaxed to achieve convergence from 5.2015007084094695e-03 to 5.2015007084094799e-03 seconds.
Warning: Simulation tolerance relaxed to achieve convergence from 5.2015007084097106e-03 to 5.2015007084097210e-03 seconds.
Warning: Simulation tolerance relaxed to achieve convergence from 5.2015007084097410e-03 to 5.2015007084097514e-03 seconds.
Warning: Simulation tolerance relaxed to achieve convergence from 5.2015007084097514e-03 to 5.2015007084097618e-03 seconds.
Warning: Simulation tolerance relaxed to achieve convergence from 5.2015007084098329e-03 to 5.2015007084098433e-03 seconds.
Warning: Simulation tolerance relaxed to achieve convergence from 5.2015007084098433e-03 to 5.2015007084098537e-03 seconds.
Warning: Simulation tolerance relaxed to achieve convergence from 5.2015007084100463e-03 to 5.2015007084100567e-03 seconds.
Warning: Simulation tolerance relaxed to achieve convergence from 5.2015007084101166e-03 to 5.2015007084101270e-03 seconds.
Warning: Simulation tolerance relaxed to achieve convergence from 5.2015007084101877e-03 to 5.2015007084101981e-03 seconds.
Warning: Simulation tolerance relaxed to achieve convergence from 5.2015007084321684e-03 to 5.2015007084321788e-03 seconds.
Warning: Simulation tolerance relaxed to achieve convergence from 5.2015007181092912e-03 to 5.2015007181093016e-03 seconds.
Warning: Simulation tolerance relaxed to achieve convergence from 5.2015007181093016e-03 to 5.2015007181093120e-03 seconds.
Warning: Simulation tolerance relaxed to achieve convergence from 5.2015007181098021e-03 to 5.2015007181098125e-03 seconds.
Warning: Simulation tolerance relaxed to achieve convergence from 5.2015007181098125e-03 to 5.2015007181098229e-03 seconds.
Warning: Simulation tolerance relaxed to achieve convergence from 5.2015007181098229e-03 to 5.2015007181098333e-03 seconds.
Warning: Simulation tolerance relaxed to achieve convergence from 5.2015007181098333e-03 to 5.2015007181098437e-03 seconds.
Warning: Simulation tolerance relaxed to achieve convergence from 5.2015007181099937e-03 to 5.2015007181100041e-03 seconds.
Warning: Simulation tolerance relaxed to achieve convergence from 5.2015007181100241e-03 to 5.2015007181100345e-03 seconds.
Warning: Simulation tolerance relaxed to achieve convergence from 5.2015007181100449e-03 to 5.2015007181100553e-03 seconds.
Warning: Simulation tolerance relaxed to achieve convergence from 5.2015007181102253e-03 to 5.2015007181102357e-03 seconds.
Warning: Simulation tolerance relaxed to achieve convergence from 5.2015007181124163e-03 to 5.2015007181124267e-03 seconds.
Warning: Simulation tolerance relaxed to achieve convergence from 5.2015007181124969e-03 to 5.2015007181125074e-03 seconds.
Warning: Simulation tolerance relaxed to achieve convergence from 5.2015007181125273e-03 to 5.2015007181125377e-03 seconds.
Warning: Simulation tolerance relaxed to achieve convergence from 5.2015007181127086e-03 to 5.2015007181127190e-03 seconds.
Warning: Simulation tolerance relaxed to achieve convergence from 5.2015007181127598e-03 to 5.2015007181127702e-03 seconds.
Warning: Simulation tolerance relaxed to achieve convergence from 5.2015007181128317e-03 to 5.2015007181128422e-03 seconds.
Warning: Simulation tolerance relaxed to achieve convergence from 5.2015007181260000e-03 to 5.2015007181260104e-03 seconds.
Warning: Simulation tolerance relaxed to achieve convergence from 5.2015007181260104e-03 to 5.2015007181260208e-03 seconds.
Warning: Simulation tolerance relaxed to achieve convergence from 5.2015007181260208e-03 to 5.2015007181260313e-03 seconds.
Warning: Simulation tolerance relaxed to achieve convergence from 5.2015007181263210e-03 to 5.2015007181263314e-03 seconds.
Warning: Simulation tolerance relaxed to achieve convergence from 5.2015007181283514e-03 to 5.2015007181283619e-03 seconds.
Warning: Simulation tolerance relaxed to achieve convergence from 5.2015007181568504e-03 to 5.2015007181568608e-03 seconds.
Warning: Simulation tolerance relaxed to achieve convergence from 5.2015007181578808e-03 to 5.2015007181578912e-03 seconds.
Warning: Simulation tolerance relaxed to achieve convergence from 5.2015007181580213e-03 to 5.2015007181580317e-03 seconds.
Warning: Simulation tolerance relaxed to achieve convergence from 5.2015007181580517e-03 to 5.2015007181580621e-03 seconds.
Warning: Simulation tolerance relaxed to achieve convergence from 5.2015007181580621e-03 to 5.2015007181580725e-03 seconds.
Warning: Simulation tolerance relaxed to achieve convergence from 5.2015007181585617e-03 to 5.2015007181585721e-03 seconds.
Warning: Simulation tolerance relaxed to achieve convergence from 5.2015007181586423e-03 to 5.2015007181586527e-03 seconds.
Warning: Simulation tolerance relaxed to achieve convergence from 5.2015007181588522e-03 to 5.2015007181588626e-03 seconds.
Warning: Simulation tolerance relaxed to achieve convergence from 5.2015007181589329e-03 to 5.2015007181589433e-03 seconds.
Warning: Simulation tolerance relaxed to achieve convergence from 5.2015007181589433e-03 to 5.2015007181589537e-03 seconds.
Warning: Simulation tolerance relaxed to achieve convergence from 5.2015007181591758e-03 to 5.2015007181591862e-03 seconds.
Warning: Simulation tolerance relaxed to achieve convergence from 5.2015007181592061e-03 to 5.2015007181592165e-03 seconds.
Warning: Simulation tolerance relaxed to achieve convergence from 5.2015007181592165e-03 to 5.2015007181592269e-03 seconds.
Warning: Simulation tolerance relaxed to achieve convergence from 5.2015007181592972e-03 to 5.2015007181593076e-03 seconds.
Warning: Simulation tolerance relaxed to achieve convergence from 5.2015007181593076e-03 to 5.2015007181593180e-03 seconds.
Warning: Simulation tolerance relaxed to achieve convergence from 5.2015007181593492e-03 to 5.2015007181593596e-03 seconds.
Warning: Simulation tolerance relaxed to achieve convergence from 5.2015007181594195e-03 to 5.2015007181594299e-03 seconds.
Warning: Simulation tolerance relaxed to achieve convergence from 5.2015007181595106e-03 to 5.2015007181595210e-03 seconds.
Warning: Simulation tolerance relaxed to achieve convergence from 5.2015007181596016e-03 to 5.2015007181596120e-03 seconds.
Warning: Simulation tolerance relaxed to achieve convergence from 5.2015007181744916e-03 to 5.2015007181745020e-03 seconds.
Warning: Simulation tolerance relaxed to achieve convergence from 5.2015007181745220e-03 to 5.2015007181745324e-03 seconds.
Warning: Simulation tolerance relaxed to achieve convergence from 5.2015007181747640e-03 to 5.2015007181747744e-03 seconds.
Warning: Simulation tolerance relaxed to achieve convergence from 5.2015007181747744e-03 to 5.2015007181747848e-03 seconds.
Warning: Simulation tolerance relaxed to achieve convergence from 5.2015007181748854e-03 to 5.2015007181748958e-03 seconds.
Warning: Simulation tolerance relaxed to achieve convergence from 5.2015007181749973e-03 to 5.2015007181750077e-03 seconds.
Warning: Simulation tolerance relaxed to achieve convergence from 5.2015007181750277e-03 to 5.2015007181750381e-03 seconds.
Warning: Simulation tolerance relaxed to achieve convergence from 5.2015007181750979e-03 to 5.2015007181751083e-03 seconds.
Warning: Simulation tolerance relaxed to achieve convergence from 5.2015007181751083e-03 to 5.2015007181751187e-03 seconds.
Warning: Simulation tolerance relaxed to achieve convergence from 5.2015007181751187e-03 to 5.2015007181751291e-03 seconds.
Warning: Simulation tolerance relaxed to achieve convergence from 5.2015007181751500e-03 to 5.2015007181751604e-03 seconds.
Warning: Simulation tolerance relaxed to achieve convergence from 5.2015007181751604e-03 to 5.2015007181751708e-03 seconds.
Warning: Simulation tolerance relaxed to achieve convergence from 5.2015007181753607e-03 to 5.2015007181753711e-03 seconds.
Warning: Simulation tolerance relaxed to achieve convergence from 5.2015007181763495e-03 to 5.2015007181763599e-03 seconds.
Warning: Simulation tolerance relaxed to achieve convergence from 5.2015007181764198e-03 to 5.2015007181764302e-03 seconds.
Warning: Simulation tolerance relaxed to achieve convergence from 5.2015007181764605e-03 to 5.2015007181764709e-03 seconds.
Warning: Simulation tolerance relaxed to achieve convergence from 5.2015007181765317e-03 to 5.2015007181765421e-03 seconds.
Warning: Simulation tolerance relaxed to achieve convergence from 5.2015007181767823e-03 to 5.2015007181767927e-03 seconds.
Warning: Simulation tolerance relaxed to achieve convergence from 5.2015007181978020e-03 to 5.2015007181978124e-03 seconds.
Warning: Simulation tolerance relaxed to achieve convergence from 5.2015007181978826e-03 to 5.2015007181978930e-03 seconds.
Warning: Simulation tolerance relaxed to achieve convergence from 5.2015007181979130e-03 to 5.2015007181979234e-03 seconds.
Warning: Simulation tolerance relaxed to achieve convergence from 5.2015007181980735e-03 to 5.2015007181980839e-03 seconds.
Warning: Simulation tolerance relaxed to achieve convergence from 5.2015007181981342e-03 to 5.2015007181981446e-03 seconds.
Warning: Simulation tolerance relaxed to achieve convergence from 5.2015007181981446e-03 to 5.2015007181981550e-03 seconds.
Warning: Simulation tolerance relaxed to achieve convergence from 5.2015007181982062e-03 to 5.2015007181982166e-03 seconds.
Warning: Simulation tolerance relaxed to achieve convergence from 5.2015007181983172e-03 to 5.2015007181983276e-03 seconds.
Warning: Simulation tolerance relaxed to achieve convergence from 5.2015007181983475e-03 to 5.2015007181983580e-03 seconds.
Warning: Simulation tolerance relaxed to achieve convergence from 5.2015007182000554e-03 to 5.2015007182000658e-03 seconds.
Warning: Simulation tolerance relaxed to achieve convergence from 5.2015007182001465e-03 to 5.2015007182001569e-03 seconds.
Warning: Simulation tolerance relaxed to achieve convergence from 5.2015007182006374e-03 to 5.2015007182006478e-03 seconds.
Warning: Simulation tolerance relaxed to achieve convergence from 5.2015007182007380e-03 to 5.2015007182007484e-03 seconds.
Warning: Simulation tolerance relaxed to achieve convergence from 5.2015007185570771e-03 to 5.2015007185570875e-03 seconds.
Warning: Simulation tolerance relaxed to achieve convergence from 5.2015007185570875e-03 to 5.2015007185570979e-03 seconds.
Warning: Simulation tolerance relaxed to achieve convergence from 5.2015007185570979e-03 to 5.2015007185571083e-03 seconds.
Warning: Simulation tolerance relaxed to achieve convergence from 5.2015007185571083e-03 to 5.2015007185571187e-03 seconds.
Warning: Simulation tolerance relaxed to achieve convergence from 5.2015007185571491e-03 to 5.2015007185571595e-03 seconds.
Warning: Simulation tolerance relaxed to achieve convergence from 5.2015007185571699e-03 to 5.2015007185571803e-03 seconds.
Warning: Simulation tolerance relaxed to achieve convergence from 5.2015007185572401e-03 to 5.2015007185572506e-03 seconds.
Warning: Simulation tolerance relaxed to achieve convergence from 5.2015007185573911e-03 to 5.2015007185574015e-03 seconds.
Warning: Simulation tolerance relaxed to achieve convergence from 5.2015007185575429e-03 to 5.2015007185575533e-03 seconds.
Warning: Simulation tolerance relaxed to achieve convergence from 5.2015007204466628e-03 to 5.2015007204466732e-03 seconds.
Warning: Simulation tolerance relaxed to achieve convergence from 5.2015007204466836e-03 to 5.2015007204466940e-03 seconds.
Warning: Simulation tolerance relaxed to achieve convergence from 5.2015007204472847e-03 to 5.2015007204472951e-03 seconds.
Warning: Simulation tolerance relaxed to achieve convergence from 5.2015007204473853e-03 to 5.2015007204473957e-03 seconds.
Warning: Simulation tolerance relaxed to achieve convergence from 5.2015007204474556e-03 to 5.2015007204474660e-03 seconds.
Warning: Simulation tolerance relaxed to achieve convergence from 5.2015007204476976e-03 to 5.2015007204477080e-03 seconds.
Warning: Simulation tolerance relaxed to achieve convergence from 5.2015007204478389e-03 to 5.2015007204478493e-03 seconds.
Warning: Simulation tolerance relaxed to achieve convergence from 5.2015007204478797e-03 to 5.2015007204478901e-03 seconds.
Warning: Simulation tolerance relaxed to achieve convergence from 5.2015007204478901e-03 to 5.2015007204479005e-03 seconds.
Warning: Simulation tolerance relaxed to achieve convergence from 5.2015007204479708e-03 to 5.2015007204479812e-03 seconds.
Warning: Simulation tolerance relaxed to achieve convergence from 5.2015007204489309e-03 to 5.2015007204489414e-03 seconds.
Warning: Simulation tolerance relaxed to achieve convergence from 5.2015007204489613e-03 to 5.2015007204489717e-03 seconds.
Warning: Simulation tolerance relaxed to achieve convergence from 5.2015007204591389e-03 to 5.2015007204591493e-03 seconds.
Warning: Simulation tolerance relaxed to achieve convergence from 5.2015007204591901e-03 to 5.2015007204592005e-03 seconds.
Warning: Simulation tolerance relaxed to achieve convergence from 5.2015007204592413e-03 to 5.2015007204592517e-03 seconds.
Warning: Simulation tolerance relaxed to achieve convergence from 5.2015007204592716e-03 to 5.2015007204592820e-03 seconds.
Warning: Simulation tolerance relaxed to achieve convergence from 5.2015007204593228e-03 to 5.2015007204593332e-03 seconds.
Warning: Simulation tolerance relaxed to achieve convergence from 5.2015007204593540e-03 to 5.2015007204593644e-03 seconds.
Warning: Simulation tolerance relaxed to achieve convergence from 5.2015007204595752e-03 to 5.2015007204595856e-03 seconds.
Warning: Simulation tolerance relaxed to achieve convergence from 5.2015007204596559e-03 to 5.2015007204596663e-03 seconds.
Warning: Simulation tolerance relaxed to achieve convergence from 5.2015007204597678e-03 to 5.2015007204597782e-03 seconds.
Warning: Simulation tolerance relaxed to achieve convergence from 5.2015007204599777e-03 to 5.2015007204599881e-03 seconds.
Warning: Simulation tolerance relaxed to achieve convergence from 5.2015007204599881e-03 to 5.2015007204599985e-03 seconds.
Warning: Simulation tolerance relaxed to achieve convergence from 5.2015007204599985e-03 to 5.2015007204600089e-03 seconds.
Warning: Simulation tolerance relaxed to achieve convergence from 5.2015007204606282e-03 to 5.2015007204606386e-03 seconds.
Warning: Simulation tolerance relaxed to achieve convergence from 5.2015007204607401e-03 to 5.2015007204607505e-03 seconds.
Warning: Simulation tolerance relaxed to achieve convergence from 5.2015007204607505e-03 to 5.2015007204607609e-03 seconds.
Warning: Simulation tolerance relaxed to achieve convergence from 5.2015007204666399e-03 to 5.2015007204666503e-03 seconds.
Warning: Simulation tolerance relaxed to achieve convergence from 5.2015007204666702e-03 to 5.2015007204666806e-03 seconds.
Warning: Simulation tolerance relaxed to achieve convergence from 5.2015007204666806e-03 to 5.2015007204666910e-03 seconds.
Warning: Simulation tolerance relaxed to achieve convergence from 5.2015007204673719e-03 to 5.2015007204673823e-03 seconds.
Warning: Simulation tolerance relaxed to achieve convergence from 5.2015007206362108e-03 to 5.2015007206362212e-03 seconds.
Warning: Simulation tolerance relaxed to achieve convergence from 5.2015007206364519e-03 to 5.2015007206364624e-03 seconds.
Warning: Simulation tolerance relaxed to achieve convergence from 5.2015007206365222e-03 to 5.2015007206365326e-03 seconds.
Warning: Simulation tolerance relaxed to achieve convergence from 5.2015007206365326e-03 to 5.2015007206365430e-03 seconds.
Warning: Simulation tolerance relaxed to achieve convergence from 5.2015007206396421e-03 to 5.2015007206396525e-03 seconds.
Warning: Simulation tolerance relaxed to achieve convergence from 5.2015007206396525e-03 to 5.2015007206396629e-03 seconds.
Warning: Simulation tolerance relaxed to achieve convergence from 5.2015007206396829e-03 to 5.2015007206396933e-03 seconds.
Warning: Simulation tolerance relaxed to achieve convergence from 5.2015007206399925e-03 to 5.2015007206400029e-03 seconds.
Warning: Simulation tolerance relaxed to achieve convergence from 5.2015007206403230e-03 to 5.2015007206403334e-03 seconds.
Warning: Simulation tolerance relaxed to achieve convergence from 5.2015007206404036e-03 to 5.2015007206404141e-03 seconds.
Warning: Simulation tolerance relaxed to achieve convergence from 5.2015007206404340e-03 to 5.2015007206404444e-03 seconds.
Warning: Simulation tolerance relaxed to achieve convergence from 5.2015007206404444e-03 to 5.2015007206404548e-03 seconds.
Warning: Simulation tolerance relaxed to achieve convergence from 5.2015007206406543e-03 to 5.2015007206406647e-03 seconds.
Warning: Simulation tolerance relaxed to achieve convergence from 5.2015007206407246e-03 to 5.2015007206407350e-03 seconds.
Warning: Simulation tolerance relaxed to achieve convergence from 5.2015007206408746e-03 to 5.2015007206408850e-03 seconds.
Warning: Simulation tolerance relaxed to achieve convergence from 5.2015007206412649e-03 to 5.2015007206412753e-03 seconds.
Warning: Simulation tolerance relaxed to achieve convergence from 5.2015007206412962e-03 to 5.2015007206413066e-03 seconds.
Warning: Simulation tolerance relaxed to achieve convergence from 5.2015007206413066e-03 to 5.2015007206413170e-03 seconds.
Warning: Simulation tolerance relaxed to achieve convergence from 5.2015007206419614e-03 to 5.2015007206419718e-03 seconds.
Warning: Simulation tolerance relaxed to achieve convergence from 5.2015007206420126e-03 to 5.2015007206420230e-03 seconds.
Warning: Simulation tolerance relaxed to achieve convergence from 5.2015007206420230e-03 to 5.2015007206420334e-03 seconds.
Warning: Simulation tolerance relaxed to achieve convergence from 5.2015007206420837e-03 to 5.2015007206420941e-03 seconds.
Warning: Simulation tolerance relaxed to achieve convergence from 5.2015007206420941e-03 to 5.2015007206421045e-03 seconds.
Warning: Simulation tolerance relaxed to achieve convergence from 5.2015007206421045e-03 to 5.2015007206421150e-03 seconds.
Warning: Simulation tolerance relaxed to achieve convergence from 5.2015007206421150e-03 to 5.2015007206421254e-03 seconds.
Warning: Simulation tolerance relaxed to achieve convergence from 5.2015007206421757e-03 to 5.2015007206421861e-03 seconds.
Warning: Simulation tolerance relaxed to achieve convergence from 5.2015007206423162e-03 to 5.2015007206423266e-03 seconds.
Warning: Simulation tolerance relaxed to achieve convergence from 5.2015007206423266e-03 to 5.2015007206423370e-03 seconds.
Warning: Simulation tolerance relaxed to achieve convergence from 5.2015007206423370e-03 to 5.2015007206423474e-03 seconds.
Warning: Simulation tolerance relaxed to achieve convergence from 5.2015007206429667e-03 to 5.2015007206429771e-03 seconds.
Warning: Simulation tolerance relaxed to achieve convergence from 5.2015007206430179e-03 to 5.2015007206430283e-03 seconds.
Warning: Simulation tolerance relaxed to achieve convergence from 5.2015007206432182e-03 to 5.2015007206432286e-03 seconds.
Warning: Simulation tolerance relaxed to achieve convergence from 5.2015007206432286e-03 to 5.2015007206432391e-03 seconds.
Warning: Simulation tolerance relaxed to achieve convergence from 5.2015007206438592e-03 to 5.2015007206438696e-03 seconds.
Warning: Simulation tolerance relaxed to achieve convergence from 5.2015007206439295e-03 to 5.2015007206439399e-03 seconds.
Warning: Simulation tolerance relaxed to achieve convergence from 5.2015007206439702e-03 to 5.2015007206439806e-03 seconds.
Warning: Simulation tolerance relaxed to achieve convergence from 5.2015007206440509e-03 to 5.2015007206440613e-03 seconds.
Warning: Simulation tolerance relaxed to achieve convergence from 5.2015007206471014e-03 to 5.2015007206471118e-03 seconds.
Warning: Simulation tolerance relaxed to achieve convergence from 5.2015007206471422e-03 to 5.2015007206471526e-03 seconds.
Warning: Simulation tolerance relaxed to achieve convergence from 5.2015007206472133e-03 to 5.2015007206472237e-03 seconds.
Warning: Simulation tolerance relaxed to achieve convergence from 5.2015007206472341e-03 to 5.2015007206472445e-03 seconds.
Warning: Simulation tolerance relaxed to achieve convergence from 5.2015007206472549e-03 to 5.2015007206472653e-03 seconds.
Warning: Simulation tolerance relaxed to achieve convergence from 5.2015007206473365e-03 to 5.2015007206473469e-03 seconds.
Warning: Simulation tolerance relaxed to achieve convergence from 5.2015007206473469e-03 to 5.2015007206473573e-03 seconds.
Warning: Simulation tolerance relaxed to achieve convergence from 5.2015007206473573e-03 to 5.2015007206473677e-03 seconds.
Warning: Simulation tolerance relaxed to achieve convergence from 5.2015007206623670e-03 to 5.2015007206623774e-03 seconds.
Warning: Simulation tolerance relaxed to achieve convergence from 5.2015007206628874e-03 to 5.2015007206628978e-03 seconds.
Warning: Simulation tolerance relaxed to achieve convergence from 5.2015007206628978e-03 to 5.2015007206629082e-03 seconds.
Warning: Simulation tolerance relaxed to achieve convergence from 5.2015007206631199e-03 to 5.2015007206631303e-03 seconds.
Warning: Simulation tolerance relaxed to achieve convergence from 5.2015007206631303e-03 to 5.2015007206631407e-03 seconds.
Warning: Simulation tolerance relaxed to achieve convergence from 5.2015007206631606e-03 to 5.2015007206631710e-03 seconds.
Warning: Simulation tolerance relaxed to achieve convergence from 5.2015007206635102e-03 to 5.2015007206635206e-03 seconds.
Warning: Simulation tolerance relaxed to achieve convergence from 5.2015007206635717e-03 to 5.2015007206635822e-03 seconds.
Warning: Simulation tolerance relaxed to achieve convergence from 5.2015007206639517e-03 to 5.2015007206639621e-03 seconds.
Warning: Simulation tolerance relaxed to achieve convergence from 5.2015007206639725e-03 to 5.2015007206639829e-03 seconds.
Warning: Simulation tolerance relaxed to achieve convergence from 5.2015007206639829e-03 to 5.2015007206639933e-03 seconds.
Warning: Simulation tolerance relaxed to achieve convergence from 5.2015007206639933e-03 to 5.2015007206640037e-03 seconds.
Warning: Simulation tolerance relaxed to achieve convergence from 5.2015007206640037e-03 to 5.2015007206640141e-03 seconds.
Warning: Simulation tolerance relaxed to achieve convergence from 5.2015007206640141e-03 to 5.2015007206640245e-03 seconds.
Warning: Simulation tolerance relaxed to achieve convergence from 5.2015007206640245e-03 to 5.2015007206640349e-03 seconds.
Warning: Simulation tolerance relaxed to achieve convergence from 5.2015007206640349e-03 to 5.2015007206640453e-03 seconds.
Warning: Simulation tolerance relaxed to achieve convergence from 5.2015007206640453e-03 to 5.2015007206640557e-03 seconds.
Warning: Simulation tolerance relaxed to achieve convergence from 5.2015007206642665e-03 to 5.2015007206642769e-03 seconds.
Warning: Simulation tolerance relaxed to achieve convergence from 5.2015007206642769e-03 to 5.2015007206642873e-03 seconds.
Warning: Simulation tolerance relaxed to achieve convergence from 5.2015007206642873e-03 to 5.2015007206642977e-03 seconds.
Warning: Simulation tolerance relaxed to achieve convergence from 5.2015007206642977e-03 to 5.2015007206643081e-03 seconds.
Warning: Simulation tolerance relaxed to achieve convergence from 5.2015007206643081e-03 to 5.2015007206643185e-03 seconds.
Warning: Simulation tolerance relaxed to achieve convergence from 5.2015007206646880e-03 to 5.2015007206646985e-03 seconds.
Warning: Simulation tolerance relaxed to achieve convergence from 5.2015007206646985e-03 to 5.2015007206647089e-03 seconds.
Warning: Simulation tolerance relaxed to achieve convergence from 5.2015007206647089e-03 to 5.2015007206647193e-03 seconds.
Warning: Simulation tolerance relaxed to achieve convergence from 5.2015007206647193e-03 to 5.2015007206647297e-03 seconds.
Warning: Simulation tolerance relaxed to achieve convergence from 5.2015007206647895e-03 to 5.2015007206647999e-03 seconds.
Warning: Simulation tolerance relaxed to achieve convergence from 5.2015007206647999e-03 to 5.2015007206648103e-03 seconds.
Warning: Simulation tolerance relaxed to achieve convergence from 5.2015007206648103e-03 to 5.2015007206648207e-03 seconds.
Warning: Simulation tolerance relaxed to achieve convergence from 5.2015007206648207e-03 to 5.2015007206648312e-03 seconds.
Warning: Simulation tolerance relaxed to achieve convergence from 5.2015007206649014e-03 to 5.2015007206649118e-03 seconds.
Warning: Simulation tolerance relaxed to achieve convergence from 5.2015007206651226e-03 to 5.2015007206651330e-03 seconds.
Warning: Simulation tolerance relaxed to achieve convergence from 5.2015007206902431e-03 to 5.2015007206902535e-03 seconds.
Warning: Simulation tolerance relaxed to achieve convergence from 5.2015007206903134e-03 to 5.2015007206903238e-03 seconds.
Warning: Simulation tolerance relaxed to achieve convergence from 5.2015007206906629e-03 to 5.2015007206906733e-03 seconds.
Warning: Simulation tolerance relaxed to achieve convergence from 5.2015007206908433e-03 to 5.2015007206908537e-03 seconds.
Warning: Simulation tolerance relaxed to achieve convergence from 5.2015007206915537e-03 to 5.2015007206915641e-03 seconds.
Warning: Simulation tolerance relaxed to achieve convergence from 5.2015007207357050e-03 to 5.2015007207357154e-03 seconds.
Warning: Simulation tolerance relaxed to achieve convergence from 5.2015007207357857e-03 to 5.2015007207357961e-03 seconds.
Warning: Simulation tolerance relaxed to achieve convergence from 5.2015007207357961e-03 to 5.2015007207358065e-03 seconds.
Warning: Simulation tolerance relaxed to achieve convergence from 5.2015007207358369e-03 to 5.2015007207358473e-03 seconds.
Warning: Simulation tolerance relaxed to achieve convergence from 5.2015007207361465e-03 to 5.2015007207361569e-03 seconds.
Warning: Simulation tolerance relaxed to achieve convergence from 5.2015007207361569e-03 to 5.2015007207361673e-03 seconds.
Warning: Simulation tolerance relaxed to achieve convergence from 5.2015007207361673e-03 to 5.2015007207361777e-03 seconds.
Warning: Simulation tolerance relaxed to achieve convergence from 5.2015007207361777e-03 to 5.2015007207361881e-03 seconds.
Warning: Simulation tolerance relaxed to achieve convergence from 5.2015007207499957e-03 to 5.2015007207500061e-03 seconds.
Warning: Simulation tolerance relaxed to achieve convergence from 5.2015007207503357e-03 to 5.2015007207503461e-03 seconds.
Warning: Simulation tolerance relaxed to achieve convergence from 5.2015007207504059e-03 to 5.2015007207504163e-03 seconds.
Warning: Simulation tolerance relaxed to achieve convergence from 5.2015007207507069e-03 to 5.2015007207507173e-03 seconds.
Warning: Simulation tolerance relaxed to achieve convergence from 5.2015007207623582e-03 to 5.2015007207623686e-03 seconds.
Warning: Simulation tolerance relaxed to achieve convergence from 5.2015007207623686e-03 to 5.2015007207623790e-03 seconds.
Warning: Simulation tolerance relaxed to achieve convergence from 5.2015007207623790e-03 to 5.2015007207623894e-03 seconds.
Warning: Simulation tolerance relaxed to achieve convergence from 5.2015007207624094e-03 to 5.2015007207624198e-03 seconds.
Warning: Simulation tolerance relaxed to achieve convergence from 5.2015007207625707e-03 to 5.2015007207625811e-03 seconds.
Warning: Simulation tolerance relaxed to achieve convergence from 5.2015007207625811e-03 to 5.2015007207625915e-03 seconds.
Warning: Simulation tolerance relaxed to achieve convergence from 5.2015007207625915e-03 to 5.2015007207626019e-03 seconds.
Warning: Simulation tolerance relaxed to achieve convergence from 5.2015007207626019e-03 to 5.2015007207626123e-03 seconds.
Warning: Simulation tolerance relaxed to achieve convergence from 5.2015007207626123e-03 to 5.2015007207626227e-03 seconds.
Warning: Simulation tolerance relaxed to achieve convergence from 5.2015007207626227e-03 to 5.2015007207626331e-03 seconds.
Warning: Simulation tolerance relaxed to achieve convergence from 5.2015007207632923e-03 to 5.2015007207633027e-03 seconds.
Warning: Simulation tolerance relaxed to achieve convergence from 5.2015007207633027e-03 to 5.2015007207633131e-03 seconds.
Warning: Simulation tolerance relaxed to achieve convergence from 5.2015007207633131e-03 to 5.2015007207633236e-03 seconds.
Warning: Simulation tolerance relaxed to achieve convergence from 5.2015007207639836e-03 to 5.2015007207639940e-03 seconds.
Warning: Simulation tolerance relaxed to achieve convergence from 5.2015007207646133e-03 to 5.2015007207646237e-03 seconds.
Warning: Simulation tolerance relaxed to achieve convergence from 5.2015007207651346e-03 to 5.2015007207651450e-03 seconds.
Warning: Simulation tolerance relaxed to achieve convergence from 5.2015007207659352e-03 to 5.2015007207659456e-03 seconds.
Warning: Simulation tolerance relaxed to achieve convergence from 5.2015007207660054e-03 to 5.2015007207660158e-03 seconds.
Warning: Simulation tolerance relaxed to achieve convergence from 5.2015007207660263e-03 to 5.2015007207660367e-03 seconds.
Warning: Simulation tolerance relaxed to achieve convergence from 5.2015007207660367e-03 to 5.2015007207660471e-03 seconds.
Warning: Simulation tolerance relaxed to achieve convergence from 5.2015007207660774e-03 to 5.2015007207660878e-03 seconds.
Warning: Simulation tolerance relaxed to achieve convergence from 5.2015007207661477e-03 to 5.2015007207661581e-03 seconds.
Warning: Simulation tolerance relaxed to achieve convergence from 5.2015007207661780e-03 to 5.2015007207661884e-03 seconds.
Warning: Simulation tolerance relaxed to achieve convergence from 5.2015007207662084e-03 to 5.2015007207662188e-03 seconds.
Warning: Simulation tolerance relaxed to achieve convergence from 5.2015007207662691e-03 to 5.2015007207662795e-03 seconds.
Warning: Simulation tolerance relaxed to achieve convergence from 5.2015007207679197e-03 to 5.2015007207679301e-03 seconds.
Warning: Simulation tolerance relaxed to achieve convergence from 5.2015007207679301e-03 to 5.2015007207679405e-03 seconds.
Warning: Simulation tolerance relaxed to achieve convergence from 5.2015007207680307e-03 to 5.2015007207680411e-03 seconds.
Warning: Simulation tolerance relaxed to achieve convergence from 5.2015007207764996e-03 to 5.2015007207765101e-03 seconds.
Warning: Simulation tolerance relaxed to achieve convergence from 5.2015007207765508e-03 to 5.2015007207765612e-03 seconds.
Warning: Simulation tolerance relaxed to achieve convergence from 5.2015007207808208e-03 to 5.2015007207808312e-03 seconds.
Warning: Simulation tolerance relaxed to achieve convergence from 5.2015007207993919e-03 to 5.2015007207994023e-03 seconds.
Warning: Simulation tolerance relaxed to achieve convergence from 5.2015007207994726e-03 to 5.2015007207994830e-03 seconds.
Warning: Simulation tolerance relaxed to achieve convergence from 5.2015007208001318e-03 to 5.2015007208001422e-03 seconds.
Warning: Simulation tolerance relaxed to achieve convergence from 5.2015007208002723e-03 to 5.2015007208002827e-03 seconds.
Warning: Simulation tolerance relaxed to achieve convergence from 5.2015007208003139e-03 to 5.2015007208003243e-03 seconds.
Warning: Simulation tolerance relaxed to achieve convergence from 5.2015007208054236e-03 to 5.2015007208054340e-03 seconds.
Warning: Simulation tolerance relaxed to achieve convergence from 5.2015007208054539e-03 to 5.2015007208054643e-03 seconds.
Warning: Simulation tolerance relaxed to achieve convergence from 5.2015007208054643e-03 to 5.2015007208054747e-03 seconds.
Warning: Simulation tolerance relaxed to achieve convergence from 5.2015007208055658e-03 to 5.2015007208055762e-03 seconds.
Warning: Simulation tolerance relaxed to achieve convergence from 5.2015007208057159e-03 to 5.2015007208057263e-03 seconds.
Warning: Simulation tolerance relaxed to achieve convergence from 5.2015007208057861e-03 to 5.2015007208057965e-03 seconds.
Warning: Simulation tolerance relaxed to achieve convergence from 5.2015007208058564e-03 to 5.2015007208058668e-03 seconds.
Warning: Simulation tolerance relaxed to achieve convergence from 5.2015007208058867e-03 to 5.2015007208058971e-03 seconds.
Warning: Simulation tolerance relaxed to achieve convergence from 5.2015007208060272e-03 to 5.2015007208060376e-03 seconds.
Warning: Simulation tolerance relaxed to achieve convergence from 5.2015007208060481e-03 to 5.2015007208060585e-03 seconds.
Warning: Simulation tolerance relaxed to achieve convergence from 5.2015007208060689e-03 to 5.2015007208060793e-03 seconds.
Warning: Simulation tolerance relaxed to achieve convergence from 5.2015007208061391e-03 to 5.2015007208061495e-03 seconds.
Warning: Simulation tolerance relaxed to achieve convergence from 5.2015007208061998e-03 to 5.2015007208062103e-03 seconds.
Warning: Simulation tolerance relaxed to achieve convergence from 5.2015007208062103e-03 to 5.2015007208062207e-03 seconds.
Warning: Simulation tolerance relaxed to achieve convergence from 5.2015007208065902e-03 to 5.2015007208066006e-03 seconds.
Warning: Simulation tolerance relaxed to achieve convergence from 5.2015007208069206e-03 to 5.2015007208069310e-03 seconds.
Warning: Simulation tolerance relaxed to achieve convergence from 5.2015007208069614e-03 to 5.2015007208069718e-03 seconds.
Warning: Simulation tolerance relaxed to achieve convergence from 5.2015007208079615e-03 to 5.2015007208079719e-03 seconds.
Warning: Simulation tolerance relaxed to achieve convergence from 5.2015007208131708e-03 to 5.2015007208131812e-03 seconds.
Warning: Simulation tolerance relaxed to achieve convergence from 5.2015007208132619e-03 to 5.2015007208132723e-03 seconds.
Warning: Simulation tolerance relaxed to achieve convergence from 5.2015007208133530e-03 to 5.2015007208133634e-03 seconds.
Warning: Simulation tolerance relaxed to achieve convergence from 5.2015007208133634e-03 to 5.2015007208133738e-03 seconds.
Warning: Simulation tolerance relaxed to achieve convergence from 5.2015007208133738e-03 to 5.2015007208133842e-03 seconds.
Warning: Simulation tolerance relaxed to achieve convergence from 5.2015007208134050e-03 to 5.2015007208134154e-03 seconds.
Warning: Simulation tolerance relaxed to achieve convergence from 5.2015007208138057e-03 to 5.2015007208138161e-03 seconds.
Warning: Simulation tolerance relaxed to achieve convergence from 5.2015007208139168e-03 to 5.2015007208139272e-03 seconds.
Warning: Simulation tolerance relaxed to achieve convergence from 5.2015007208139575e-03 to 5.2015007208139679e-03 seconds.
Warning: Simulation tolerance relaxed to achieve convergence from 5.2015007208141588e-03 to 5.2015007208141692e-03 seconds.
Warning: Simulation tolerance relaxed to achieve convergence from 5.2015007208143088e-03 to 5.2015007208143192e-03 seconds.
Warning: Simulation tolerance relaxed to achieve convergence from 5.2015007208163488e-03 to 5.2015007208163593e-03 seconds.
Warning: Simulation tolerance relaxed to achieve convergence from 5.2015007208163593e-03 to 5.2015007208163697e-03 seconds.
Warning: Simulation tolerance relaxed to achieve convergence from 5.2015007208163697e-03 to 5.2015007208163801e-03 seconds.
Warning: Simulation tolerance relaxed to achieve convergence from 5.2015007208164304e-03 to 5.2015007208164408e-03 seconds.
Warning: Simulation tolerance relaxed to achieve convergence from 5.2015007208166516e-03 to 5.2015007208166620e-03 seconds.
Warning: Simulation tolerance relaxed to achieve convergence from 5.2015007359080233e-03 to 5.2015007359080337e-03 seconds.
Warning: Simulation tolerance relaxed to achieve convergence from 5.2015007359080935e-03 to 5.2015007359081039e-03 seconds.
Warning: Simulation tolerance relaxed to achieve convergence from 5.2015007359081950e-03 to 5.2015007359082054e-03 seconds.
Warning: Simulation tolerance relaxed to achieve convergence from 5.2015007359082054e-03 to 5.2015007359082158e-03 seconds.
Warning: Simulation tolerance relaxed to achieve convergence from 5.2015007359085550e-03 to 5.2015007359085654e-03 seconds.
Warning: Simulation tolerance relaxed to achieve convergence from 5.2015007359085853e-03 to 5.2015007359085957e-03 seconds.
Warning: Simulation tolerance relaxed to achieve convergence from 5.2015007359086669e-03 to 5.2015007359086773e-03 seconds.
Warning: Simulation tolerance relaxed to achieve convergence from 5.2015007359087978e-03 to 5.2015007359088082e-03 seconds.
Warning: Simulation tolerance relaxed to achieve convergence from 5.2015007359088993e-03 to 5.2015007359089097e-03 seconds.
Warning: Simulation tolerance relaxed to achieve convergence from 5.2015007359090103e-03 to 5.2015007359090207e-03 seconds.
Warning: Simulation tolerance relaxed to achieve convergence from 5.2015007359091422e-03 to 5.2015007359091526e-03 seconds.
Warning: Simulation tolerance relaxed to achieve convergence from 5.2015007359091734e-03 to 5.2015007359091838e-03 seconds.
Warning: Simulation tolerance relaxed to achieve convergence from 5.2015007359094943e-03 to 5.2015007359095047e-03 seconds.
Warning: Simulation tolerance relaxed to achieve convergence from 5.2015007359095047e-03 to 5.2015007359095151e-03 seconds.
Warning: Simulation tolerance relaxed to achieve convergence from 5.2015007359096262e-03 to 5.2015007359096366e-03 seconds.
Warning: Simulation tolerance relaxed to achieve convergence from 5.2015007359096964e-03 to 5.2015007359097068e-03 seconds.
Warning: Simulation tolerance relaxed to achieve convergence from 5.2015007359097268e-03 to 5.2015007359097372e-03 seconds.
Warning: Simulation tolerance relaxed to achieve convergence from 5.2015007359099367e-03 to 5.2015007359099471e-03 seconds.
Warning: Simulation tolerance relaxed to achieve convergence from 5.2015007359523958e-03 to 5.2015007359524062e-03 seconds.
Warning: Simulation tolerance relaxed to achieve convergence from 5.2015007359527765e-03 to 5.2015007359527870e-03 seconds.
Warning: Simulation tolerance relaxed to achieve convergence from 5.2015007359528772e-03 to 5.2015007359528876e-03 seconds.
Warning: Simulation tolerance relaxed to achieve convergence from 5.2015007359534071e-03 to 5.2015007359534175e-03 seconds.
Warning: Simulation tolerance relaxed to achieve convergence from 5.2015007359537081e-03 to 5.2015007359537185e-03 seconds.
Warning: Simulation tolerance relaxed to achieve convergence from 5.2015007359537593e-03 to 5.2015007359537697e-03 seconds.
Warning: Simulation tolerance relaxed to achieve convergence from 5.2015007359539093e-03 to 5.2015007359539197e-03 seconds.
Warning: Simulation tolerance relaxed to achieve convergence from 5.2015007359542719e-03 to 5.2015007359542823e-03 seconds.
Warning: Simulation tolerance relaxed to achieve convergence from 5.2015007359542823e-03 to 5.2015007359542927e-03 seconds.
Warning: Simulation tolerance relaxed to achieve convergence from 5.2015007359549224e-03 to 5.2015007359549328e-03 seconds.
Warning: Simulation tolerance relaxed to achieve convergence from 5.2015007359563518e-03 to 5.2015007359563622e-03 seconds.
Warning: Simulation tolerance relaxed to achieve convergence from 5.2015007359564221e-03 to 5.2015007359564325e-03 seconds.
Warning: Simulation tolerance relaxed to achieve convergence from 5.2015007359564628e-03 to 5.2015007359564732e-03 seconds.
Warning: Simulation tolerance relaxed to achieve convergence from 5.2015007359565348e-03 to 5.2015007359565452e-03 seconds.
Warning: Simulation tolerance relaxed to achieve convergence from 5.2015007359566051e-03 to 5.2015007359566155e-03 seconds.
Warning: Simulation tolerance relaxed to achieve convergence from 5.2015007359667549e-03 to 5.2015007359667654e-03 seconds.
Warning: Simulation tolerance relaxed to achieve convergence from 5.2015007359677741e-03 to 5.2015007359677845e-03 seconds.
Warning: Simulation tolerance relaxed to achieve convergence from 5.2015007359677845e-03 to 5.2015007359677949e-03 seconds.
Warning: Simulation tolerance relaxed to achieve convergence from 5.2015007359679346e-03 to 5.2015007359679450e-03 seconds.
Warning: Simulation tolerance relaxed to achieve convergence from 5.2015007359679450e-03 to 5.2015007359679554e-03 seconds.
Warning: Simulation tolerance relaxed to achieve convergence from 5.2015007359682060e-03 to 5.2015007359682165e-03 seconds.
Warning: Simulation tolerance relaxed to achieve convergence from 5.2015007359682364e-03 to 5.2015007359682468e-03 seconds.
Warning: Simulation tolerance relaxed to achieve convergence from 5.2015007359685382e-03 to 5.2015007359685487e-03 seconds.
Warning: Simulation tolerance relaxed to achieve convergence from 5.2015007359685686e-03 to 5.2015007359685790e-03 seconds.
Warning: Simulation tolerance relaxed to achieve convergence from 5.2015007359687490e-03 to 5.2015007359687594e-03 seconds.
Warning: Simulation tolerance relaxed to achieve convergence from 5.2015007359692287e-03 to 5.2015007359692391e-03 seconds.
Warning: Simulation tolerance relaxed to achieve convergence from 5.2015007359700492e-03 to 5.2015007359700596e-03 seconds.
Warning: Simulation tolerance relaxed to achieve convergence from 5.2015007359700900e-03 to 5.2015007359701004e-03 seconds.
Warning: Simulation tolerance relaxed to achieve convergence from 5.2015007359730286e-03 to 5.2015007359730390e-03 seconds.
Warning: Simulation tolerance relaxed to achieve convergence from 5.2015007359731092e-03 to 5.2015007359731196e-03 seconds.
Warning: Simulation tolerance relaxed to achieve convergence from 5.2015007359731301e-03 to 5.2015007359731405e-03 seconds.
Warning: Simulation tolerance relaxed to achieve convergence from 5.2015007359735499e-03 to 5.2015007359735603e-03 seconds.
Warning: Simulation tolerance relaxed to achieve convergence from 5.2015007359735603e-03 to 5.2015007359735707e-03 seconds.
Warning: Simulation tolerance relaxed to achieve convergence from 5.2015007359737103e-03 to 5.2015007359737207e-03 seconds.
Warning: Simulation tolerance relaxed to achieve convergence from 5.2015007359747928e-03 to 5.2015007359748032e-03 seconds.
Warning: Simulation tolerance relaxed to achieve convergence from 5.2015007359788234e-03 to 5.2015007359788338e-03 seconds.
Warning: Simulation tolerance relaxed to achieve convergence from 5.2015007359794939e-03 to 5.2015007359795043e-03 seconds.
Warning: Simulation tolerance relaxed to achieve convergence from 5.2015007796222144e-03 to 5.2015007796222248e-03 seconds.
Warning: Simulation tolerance relaxed to achieve convergence from 5.2015007796225345e-03 to 5.2015007796225449e-03 seconds.
Warning: Simulation tolerance relaxed to achieve convergence from 5.2015007796229274e-03 to 5.2015007796229378e-03 seconds.
Warning: Simulation tolerance relaxed to achieve convergence from 5.2015007796231000e-03 to 5.2015007796231104e-03 seconds.
Warning: Simulation tolerance relaxed to achieve convergence from 5.2015007796231702e-03 to 5.2015007796231806e-03 seconds.
Warning: Simulation tolerance relaxed to achieve convergence from 5.2015007796234903e-03 to 5.2015007796235007e-03 seconds.
Warning: Simulation tolerance relaxed to achieve convergence from 5.2015007796239023e-03 to 5.2015007796239127e-03 seconds.
Warning: Simulation tolerance relaxed to achieve convergence from 5.2015007796259206e-03 to 5.2015007796259310e-03 seconds.
Warning: Simulation tolerance relaxed to achieve convergence from 5.2015007796259310e-03 to 5.2015007796259415e-03 seconds.
Warning: Simulation tolerance relaxed to achieve convergence from 5.2015007796259415e-03 to 5.2015007796259519e-03 seconds.
Warning: Simulation tolerance relaxed to achieve convergence from 5.2015007798586798e-03 to 5.2015007798586902e-03 seconds.
Warning: Simulation tolerance relaxed to achieve convergence from 5.2015007798606010e-03 to 5.2015007798606114e-03 seconds.
Warning: Simulation tolerance relaxed to achieve convergence from 5.2015007798606114e-03 to 5.2015007798606218e-03 seconds.
Warning: Simulation tolerance relaxed to achieve convergence from 5.2015007798611413e-03 to 5.2015007798611517e-03 seconds.
Warning: Simulation tolerance relaxed to achieve convergence from 5.2015007798612220e-03 to 5.2015007798612324e-03 seconds.
Warning: Simulation tolerance relaxed to achieve convergence from 5.2015007798616132e-03 to 5.2015007798616236e-03 seconds.
Warning: Simulation tolerance relaxed to achieve convergence from 5.2015007798618552e-03 to 5.2015007798618656e-03 seconds.
Warning: Simulation tolerance relaxed to achieve convergence from 5.2015007798619254e-03 to 5.2015007798619358e-03 seconds.
Warning: Simulation tolerance relaxed to achieve convergence from 5.2015007798620260e-03 to 5.2015007798620365e-03 seconds.
Warning: Simulation tolerance relaxed to achieve convergence from 5.2015007798620365e-03 to 5.2015007798620469e-03 seconds.
Warning: Simulation tolerance relaxed to achieve convergence from 5.2015007798623461e-03 to 5.2015007798623565e-03 seconds.
Warning: Simulation tolerance relaxed to achieve convergence from 5.2015007798623765e-03 to 5.2015007798623869e-03 seconds.
Warning: Simulation tolerance relaxed to achieve convergence from 5.2015007798628882e-03 to 5.2015007798628986e-03 seconds.
Warning: Simulation tolerance relaxed to achieve convergence from 5.2015007798631788e-03 to 5.2015007798631892e-03 seconds.
Warning: Simulation tolerance relaxed to achieve convergence from 5.2015007798631892e-03 to 5.2015007798631996e-03 seconds.
Warning: Simulation tolerance relaxed to achieve convergence from 5.2015007798661313e-03 to 5.2015007798661417e-03 seconds.
Warning: Simulation tolerance relaxed to achieve convergence from 5.2015007798673612e-03 to 5.2015007798673716e-03 seconds.
Warning: Simulation tolerance relaxed to achieve convergence from 5.2015007798678322e-03 to 5.2015007798678426e-03 seconds.
Warning: Simulation tolerance relaxed to achieve convergence from 5.2015007798680126e-03 to 5.2015007798680230e-03 seconds.
Warning: Simulation tolerance relaxed to achieve convergence from 5.2015007798681834e-03 to 5.2015007798681939e-03 seconds.
Warning: Simulation tolerance relaxed to achieve convergence from 5.2015007798682754e-03 to 5.2015007798682858e-03 seconds.
Warning: Simulation tolerance relaxed to achieve convergence from 5.2015007798684862e-03 to 5.2015007798684966e-03 seconds.
Warning: Simulation tolerance relaxed to achieve convergence from 5.2015007798706858e-03 to 5.2015007798706962e-03 seconds.
Warning: Simulation tolerance relaxed to achieve convergence from 5.2015007798707161e-03 to 5.2015007798707266e-03 seconds.
Warning: Simulation tolerance relaxed to achieve convergence from 5.2015007798707266e-03 to 5.2015007798707370e-03 seconds.
Warning: Simulation tolerance relaxed to achieve convergence from 5.2015007798707370e-03 to 5.2015007798707474e-03 seconds.
Warning: Simulation tolerance relaxed to achieve convergence from 5.2015007798707474e-03 to 5.2015007798707578e-03 seconds.
Warning: Simulation tolerance relaxed to achieve convergence from 5.2015007798710570e-03 to 5.2015007798710674e-03 seconds.
Warning: Simulation tolerance relaxed to achieve convergence from 5.2015007798710674e-03 to 5.2015007798710778e-03 seconds.
Warning: Simulation tolerance relaxed to achieve convergence from 5.2015007798711689e-03 to 5.2015007798711793e-03 seconds.
Warning: Simulation tolerance relaxed to achieve convergence from 5.2015007798712903e-03 to 5.2015007798713007e-03 seconds.
Warning: Simulation tolerance relaxed to achieve convergence from 5.2015007798713615e-03 to 5.2015007798713719e-03 seconds.
Warning: Simulation tolerance relaxed to achieve convergence from 5.2015007798716017e-03 to 5.2015007798716121e-03 seconds.
Warning: Simulation tolerance relaxed to achieve convergence from 5.2015007798829130e-03 to 5.2015007798829234e-03 seconds.
Warning: Simulation tolerance relaxed to achieve convergence from 5.2015007798854630e-03 to 5.2015007798854734e-03 seconds.
Warning: Simulation tolerance relaxed to achieve convergence from 5.2015007798855437e-03 to 5.2015007798855541e-03 seconds.
Warning: Simulation tolerance relaxed to achieve convergence from 5.2015007798864544e-03 to 5.2015007798864648e-03 seconds.
Warning: Simulation tolerance relaxed to achieve convergence from 5.2015007798864752e-03 to 5.2015007798864856e-03 seconds.
Warning: Simulation tolerance relaxed to achieve convergence from 5.2015007798864856e-03 to 5.2015007798864961e-03 seconds.
Warning: Simulation tolerance relaxed to achieve convergence from 5.2015007798867068e-03 to 5.2015007798867172e-03 seconds.
Warning: Simulation tolerance relaxed to achieve convergence from 5.2015007798870269e-03 to 5.2015007798870373e-03 seconds.
Warning: Simulation tolerance relaxed to achieve convergence from 5.2015007798870373e-03 to 5.2015007798870477e-03 seconds.
Warning: Simulation tolerance relaxed to achieve convergence from 5.2015007798871284e-03 to 5.2015007798871388e-03 seconds.
Warning: Simulation tolerance relaxed to achieve convergence from 5.2015007798871388e-03 to 5.2015007798871492e-03 seconds.
Warning: Simulation tolerance relaxed to achieve convergence from 5.2015007798872394e-03 to 5.2015007798872498e-03 seconds.
Warning: Simulation tolerance relaxed to achieve convergence from 5.2015007798873200e-03 to 5.2015007798873305e-03 seconds.
Warning: Simulation tolerance relaxed to achieve convergence from 5.2015007798874007e-03 to 5.2015007798874111e-03 seconds.
Warning: Simulation tolerance relaxed to achieve convergence from 5.2015007798876210e-03 to 5.2015007798876314e-03 seconds.
Warning: Simulation tolerance relaxed to achieve convergence from 5.2015007798876913e-03 to 5.2015007798877017e-03 seconds.
Warning: Simulation tolerance relaxed to achieve convergence from 5.2015007798877017e-03 to 5.2015007798877121e-03 seconds.
Warning: Simulation tolerance relaxed to achieve convergence from 5.2015007798878023e-03 to 5.2015007798878127e-03 seconds.
Warning: Simulation tolerance relaxed to achieve convergence from 5.2015007798885534e-03 to 5.2015007798885638e-03 seconds.
Warning: Simulation tolerance relaxed to achieve convergence from 5.2015007798895726e-03 to 5.2015007798895830e-03 seconds.
Warning: Simulation tolerance relaxed to achieve convergence from 5.2015007798898241e-03 to 5.2015007798898345e-03 seconds.
Warning: Simulation tolerance relaxed to achieve convergence from 5.2015007798900045e-03 to 5.2015007798900149e-03 seconds.
Warning: Simulation tolerance relaxed to achieve convergence from 5.2015007798900349e-03 to 5.2015007798900453e-03 seconds.
Warning: Simulation tolerance relaxed to achieve convergence from 5.2015007798901051e-03 to 5.2015007798901156e-03 seconds.
Warning: Simulation tolerance relaxed to achieve convergence from 5.2015007798901156e-03 to 5.2015007798901260e-03 seconds.
Warning: Simulation tolerance relaxed to achieve convergence from 5.2015007861915576e-03 to 5.2015007861915680e-03 seconds.
Warning: Simulation tolerance relaxed to achieve convergence from 5.2015007861915680e-03 to 5.2015007861915784e-03 seconds.
Warning: Simulation tolerance relaxed to achieve convergence from 5.2015007862021879e-03 to 5.2015007862021984e-03 seconds.
Warning: Simulation tolerance relaxed to achieve convergence from 5.2015007862021984e-03 to 5.2015007862022088e-03 seconds.
Warning: Simulation tolerance relaxed to achieve convergence from 5.2015007862022495e-03 to 5.2015007862022599e-03 seconds.
Warning: Simulation tolerance relaxed to achieve convergence from 5.2015007862022808e-03 to 5.2015007862022912e-03 seconds.
Warning: Simulation tolerance relaxed to achieve convergence from 5.2015007862035506e-03 to 5.2015007862035610e-03 seconds.
Warning: Simulation tolerance relaxed to achieve convergence from 5.2015007862042419e-03 to 5.2015007862042523e-03 seconds.
Warning: Simulation tolerance relaxed to achieve convergence from 5.2015007862045541e-03 to 5.2015007862045645e-03 seconds.
Warning: Simulation tolerance relaxed to achieve convergence from 5.2015007862046244e-03 to 5.2015007862046348e-03 seconds.
Warning: Simulation tolerance relaxed to achieve convergence from 5.2015007862047848e-03 to 5.2015007862047952e-03 seconds.
Warning: Simulation tolerance relaxed to achieve convergence from 5.2015007862070148e-03 to 5.2015007862070252e-03 seconds.
Warning: Simulation tolerance relaxed to achieve convergence from 5.2015007862070252e-03 to 5.2015007862070356e-03 seconds.
Warning: Simulation tolerance relaxed to achieve convergence from 5.2015007862072273e-03 to 5.2015007862072377e-03 seconds.
Warning: Simulation tolerance relaxed to achieve convergence from 5.2015007862098893e-03 to 5.2015007862098997e-03 seconds.
Warning: Simulation tolerance relaxed to achieve convergence from 5.2015007862104886e-03 to 5.2015007862104990e-03 seconds.
Warning: Simulation tolerance relaxed to achieve convergence from 5.2015007862106985e-03 to 5.2015007862107089e-03 seconds.
Warning: Simulation tolerance relaxed to achieve convergence from 5.2015007862107393e-03 to 5.2015007862107497e-03 seconds.
Warning: Simulation tolerance relaxed to achieve convergence from 5.2015007862107601e-03 to 5.2015007862107705e-03 seconds.
Warning: Simulation tolerance relaxed to achieve convergence from 5.2015007862108303e-03 to 5.2015007862108407e-03 seconds.
Warning: Simulation tolerance relaxed to achieve convergence from 5.2015007862108407e-03 to 5.2015007862108512e-03 seconds.
Warning: Simulation tolerance relaxed to achieve convergence from 5.2015007862109110e-03 to 5.2015007862109214e-03 seconds.
Warning: Simulation tolerance relaxed to achieve convergence from 5.2015007862109917e-03 to 5.2015007862110021e-03 seconds.
Warning: Simulation tolerance relaxed to achieve convergence from 5.2015007862113039e-03 to 5.2015007862113143e-03 seconds.
Warning: Simulation tolerance relaxed to achieve convergence from 5.2015007862119440e-03 to 5.2015007862119544e-03 seconds.
Warning: Simulation tolerance relaxed to achieve convergence from 5.2015007862119952e-03 to 5.2015007862120056e-03 seconds.
Warning: Simulation tolerance relaxed to achieve convergence from 5.2015007862123656e-03 to 5.2015007862123760e-03 seconds.
Warning: Simulation tolerance relaxed to achieve convergence from 5.2015007862125364e-03 to 5.2015007862125468e-03 seconds.
Warning: Simulation tolerance relaxed to achieve convergence from 5.2015007862125573e-03 to 5.2015007862125677e-03 seconds.
Warning: Simulation tolerance relaxed to achieve convergence from 5.2015007862126483e-03 to 5.2015007862126587e-03 seconds.
Warning: Simulation tolerance relaxed to achieve convergence from 5.2015007862127594e-03 to 5.2015007862127698e-03 seconds.
Warning: Simulation tolerance relaxed to achieve convergence from 5.2015007862320087e-03 to 5.2015007862320191e-03 seconds.
Warning: Simulation tolerance relaxed to achieve convergence from 5.2015007862320295e-03 to 5.2015007862320399e-03 seconds.
Warning: Simulation tolerance relaxed to achieve convergence from 5.2015007862323513e-03 to 5.2015007862323617e-03 seconds.
Warning: Simulation tolerance relaxed to achieve convergence from 5.2015007862324120e-03 to 5.2015007862324224e-03 seconds.
Warning: Simulation tolerance relaxed to achieve convergence from 5.2015007862327026e-03 to 5.2015007862327130e-03 seconds.
Warning: Simulation tolerance relaxed to achieve convergence from 5.2015007862327130e-03 to 5.2015007862327234e-03 seconds.
Warning: Simulation tolerance relaxed to achieve convergence from 5.2015007862335344e-03 to 5.2015007862335448e-03 seconds.
Warning: Simulation tolerance relaxed to achieve convergence from 5.2015007862339143e-03 to 5.2015007862339247e-03 seconds.
Warning: Simulation tolerance relaxed to achieve convergence from 5.2015007862339551e-03 to 5.2015007862339655e-03 seconds.
Warning: Simulation tolerance relaxed to achieve convergence from 5.2015007862341468e-03 to 5.2015007862341572e-03 seconds.
Warning: Simulation tolerance relaxed to achieve convergence from 5.2015007862341572e-03 to 5.2015007862341676e-03 seconds.
Warning: Simulation tolerance relaxed to achieve convergence from 5.2015007862341884e-03 to 5.2015007862341988e-03 seconds.
Warning: Simulation tolerance relaxed to achieve convergence from 5.2015007862580582e-03 to 5.2015007862580686e-03 seconds.
Warning: Simulation tolerance relaxed to achieve convergence from 5.2015007862580686e-03 to 5.2015007862580790e-03 seconds.
Warning: Simulation tolerance relaxed to achieve convergence from 5.2015007862582386e-03 to 5.2015007862582490e-03 seconds.
Warning: Simulation tolerance relaxed to achieve convergence from 5.2015007862586185e-03 to 5.2015007862586289e-03 seconds.
Warning: Simulation tolerance relaxed to achieve convergence from 5.2015007862593488e-03 to 5.2015007862593592e-03 seconds.
Warning: Simulation tolerance relaxed to achieve convergence from 5.2015007862593792e-03 to 5.2015007862593896e-03 seconds.
Warning: Simulation tolerance relaxed to achieve convergence from 5.2015007862594494e-03 to 5.2015007862594598e-03 seconds.
Warning: Simulation tolerance relaxed to achieve convergence from 5.2015007862594598e-03 to 5.2015007862594703e-03 seconds.
Warning: Simulation tolerance relaxed to achieve convergence from 5.2015007862596697e-03 to 5.2015007862596802e-03 seconds.
Warning: Simulation tolerance relaxed to achieve convergence from 5.2015007862598207e-03 to 5.2015007862598311e-03 seconds.
Warning: Simulation tolerance relaxed to achieve convergence from 5.2015007862599820e-03 to 5.2015007862599924e-03 seconds.
Warning: Simulation tolerance relaxed to achieve convergence from 5.2015007862601546e-03 to 5.2015007862601650e-03 seconds.
Warning: Simulation tolerance relaxed to achieve convergence from 5.2015007862602951e-03 to 5.2015007862603055e-03 seconds.
Warning: Simulation tolerance relaxed to achieve convergence from 5.2015007862604061e-03 to 5.2015007862604165e-03 seconds.
Warning: Simulation tolerance relaxed to achieve convergence from 5.2015007862621478e-03 to 5.2015007862621582e-03 seconds.
Warning: Simulation tolerance relaxed to achieve convergence from 5.2015007862624973e-03 to 5.2015007862625078e-03 seconds.
Warning: Simulation tolerance relaxed to achieve convergence from 5.2015007862625980e-03 to 5.2015007862626084e-03 seconds.
Warning: Simulation tolerance relaxed to achieve convergence from 5.2015007862626084e-03 to 5.2015007862626188e-03 seconds.
Warning: Simulation tolerance relaxed to achieve convergence from 5.2015007862626795e-03 to 5.2015007862626899e-03 seconds.
Warning: Simulation tolerance relaxed to achieve convergence from 5.2015007862628105e-03 to 5.2015007862628209e-03 seconds.
Warning: Simulation tolerance relaxed to achieve convergence from 5.2015007862637125e-03 to 5.2015007862637229e-03 seconds.
Warning: Simulation tolerance relaxed to achieve convergence from 5.2015007862644437e-03 to 5.2015007862644541e-03 seconds.
Warning: Simulation tolerance relaxed to achieve convergence from 5.2015007862677345e-03 to 5.2015007862677449e-03 seconds.
Warning: Simulation tolerance relaxed to achieve convergence from 5.2015007862801759e-03 to 5.2015007862801863e-03 seconds.
Warning: Simulation tolerance relaxed to achieve convergence from 5.2015007862815455e-03 to 5.2015007862815559e-03 seconds.
Warning: Simulation tolerance relaxed to achieve convergence from 5.2015007862827867e-03 to 5.2015007862827971e-03 seconds.
Warning: Simulation tolerance relaxed to achieve convergence from 5.2015007862828378e-03 to 5.2015007862828483e-03 seconds.
Warning: Simulation tolerance relaxed to achieve convergence from 5.2015007862958275e-03 to 5.2015007862958379e-03 seconds.
Warning: Simulation tolerance relaxed to achieve convergence from 5.2015007863026475e-03 to 5.2015007863026579e-03 seconds.
Warning: Simulation tolerance relaxed to achieve convergence from 5.2015007863030309e-03 to 5.2015007863030413e-03 seconds.
Warning: Simulation tolerance relaxed to achieve convergence from 5.2015007863030717e-03 to 5.2015007863030821e-03 seconds.
Warning: Simulation tolerance relaxed to achieve convergence from 5.2015007863046919e-03 to 5.2015007863047023e-03 seconds.
Warning: Simulation tolerance relaxed to achieve convergence from 5.2015007863049035e-03 to 5.2015007863049139e-03 seconds.
Warning: Simulation tolerance relaxed to achieve convergence from 5.2015007863049339e-03 to 5.2015007863049443e-03 seconds.
Warning: Simulation tolerance relaxed to achieve convergence from 5.2015007863153231e-03 to 5.2015007863153336e-03 seconds.
Warning: Simulation tolerance relaxed to achieve convergence from 5.2015007865411547e-03 to 5.2015007865411651e-03 seconds.
Warning: Simulation tolerance relaxed to achieve convergence from 5.2015007865426855e-03 to 5.2015007865426960e-03 seconds.
Warning: Simulation tolerance relaxed to achieve convergence from 5.2015007865427558e-03 to 5.2015007865427662e-03 seconds.
Warning: Simulation tolerance relaxed to achieve convergence from 5.2015007892081055e-03 to 5.2015007892081159e-03 seconds.
Warning: Simulation tolerance relaxed to achieve convergence from 5.2015007892081159e-03 to 5.2015007892081263e-03 seconds.
Warning: Simulation tolerance relaxed to achieve convergence from 5.2015007892081463e-03 to 5.2015007892081567e-03 seconds.
Warning: Simulation tolerance relaxed to achieve convergence from 5.2015007892081567e-03 to 5.2015007892081671e-03 seconds.
Warning: Simulation tolerance relaxed to achieve convergence from 5.2015007892086060e-03 to 5.2015007892086164e-03 seconds.
Warning: Simulation tolerance relaxed to achieve convergence from 5.2015007892087075e-03 to 5.2015007892087179e-03 seconds.
Warning: Simulation tolerance relaxed to achieve convergence from 5.2015007892088783e-03 to 5.2015007892088887e-03 seconds.
Warning: Simulation tolerance relaxed to achieve convergence from 5.2015007892088887e-03 to 5.2015007892088991e-03 seconds.
Warning: Simulation tolerance relaxed to achieve convergence from 5.2015007892089295e-03 to 5.2015007892089399e-03 seconds.
Warning: Simulation tolerance relaxed to achieve convergence from 5.2015007892089998e-03 to 5.2015007892090102e-03 seconds.
Warning: Simulation tolerance relaxed to achieve convergence from 5.2015007892090102e-03 to 5.2015007892090206e-03 seconds.
Warning: Simulation tolerance relaxed to achieve convergence from 5.2015007892090206e-03 to 5.2015007892090310e-03 seconds.
Warning: Simulation tolerance relaxed to achieve convergence from 5.2015007892091325e-03 to 5.2015007892091429e-03 seconds.
Warning: Simulation tolerance relaxed to achieve convergence from 5.2015007892092730e-03 to 5.2015007892092834e-03 seconds.
Warning: Simulation tolerance relaxed to achieve convergence from 5.2015007892094048e-03 to 5.2015007892094152e-03 seconds.
Warning: Simulation tolerance relaxed to achieve convergence from 5.2015007892094655e-03 to 5.2015007892094759e-03 seconds.
Warning: Simulation tolerance relaxed to achieve convergence from 5.2015007892094959e-03 to 5.2015007892095063e-03 seconds.
Warning: Simulation tolerance relaxed to achieve convergence from 5.2015007921031968e-03 to 5.2015007921032072e-03 seconds.
Warning: Simulation tolerance relaxed to achieve convergence from 5.2015007921038265e-03 to 5.2015007921038369e-03 seconds.
Warning: Simulation tolerance relaxed to achieve convergence from 5.2015007922128556e-03 to 5.2015007922128660e-03 seconds.
Warning: Simulation tolerance relaxed to achieve convergence from 5.2015007922129259e-03 to 5.2015007922129363e-03 seconds.
Warning: Simulation tolerance relaxed to achieve convergence from 5.2015007922129970e-03 to 5.2015007922130074e-03 seconds.
Warning: Simulation tolerance relaxed to achieve convergence from 5.2015007922130074e-03 to 5.2015007922130178e-03 seconds.
Warning: Simulation tolerance relaxed to achieve convergence from 5.2015007922132485e-03 to 5.2015007922132589e-03 seconds.
Warning: Simulation tolerance relaxed to achieve convergence from 5.2015007922134289e-03 to 5.2015007922134393e-03 seconds.
Warning: Simulation tolerance relaxed to achieve convergence from 5.2015007922134497e-03 to 5.2015007922134602e-03 seconds.
Warning: Simulation tolerance relaxed to achieve convergence from 5.2015007922134905e-03 to 5.2015007922135009e-03 seconds.
Warning: Simulation tolerance relaxed to achieve convergence from 5.2015007922135608e-03 to 5.2015007922135712e-03 seconds.
Warning: Simulation tolerance relaxed to achieve convergence from 5.2015007922135911e-03 to 5.2015007922136015e-03 seconds.
Warning: Simulation tolerance relaxed to achieve convergence from 5.2015007922136623e-03 to 5.2015007922136727e-03 seconds.
Warning: Simulation tolerance relaxed to achieve convergence from 5.2015007922144143e-03 to 5.2015007922144247e-03 seconds.
Warning: Simulation tolerance relaxed to achieve convergence from 5.2015007922144351e-03 to 5.2015007922144455e-03 seconds.
Warning: Simulation tolerance relaxed to achieve convergence from 5.2015007922144455e-03 to 5.2015007922144559e-03 seconds.
Warning: Simulation tolerance relaxed to achieve convergence from 5.2015007922147655e-03 to 5.2015007922147759e-03 seconds.
Warning: Simulation tolerance relaxed to achieve convergence from 5.2015007922149468e-03 to 5.2015007922149572e-03 seconds.
Warning: Simulation tolerance relaxed to achieve convergence from 5.2015007922150379e-03 to 5.2015007922150483e-03 seconds.
Warning: Simulation tolerance relaxed to achieve convergence from 5.2015007922152079e-03 to 5.2015007922152183e-03 seconds.
Warning: Simulation tolerance relaxed to achieve convergence from 5.2015007922153085e-03 to 5.2015007922153189e-03 seconds.
Warning: Simulation tolerance relaxed to achieve convergence from 5.2015007922153493e-03 to 5.2015007922153597e-03 seconds.
Warning: Simulation tolerance relaxed to achieve convergence from 5.2015007922155904e-03 to 5.2015007922156008e-03 seconds.
Warning: Simulation tolerance relaxed to achieve convergence from 5.2015007922157405e-03 to 5.2015007922157509e-03 seconds.
Warning: Simulation tolerance relaxed to achieve convergence from 5.2015007922158107e-03 to 5.2015007922158211e-03 seconds.
Warning: Simulation tolerance relaxed to achieve convergence from 5.2015007922158411e-03 to 5.2015007922158515e-03 seconds.
Warning: Simulation tolerance relaxed to achieve convergence from 5.2015007922158619e-03 to 5.2015007922158723e-03 seconds.
Warning: Simulation tolerance relaxed to achieve convergence from 5.2015007922159026e-03 to 5.2015007922159131e-03 seconds.
Warning: Simulation tolerance relaxed to achieve convergence from 5.2015007922159538e-03 to 5.2015007922159642e-03 seconds.
Warning: Simulation tolerance relaxed to achieve convergence from 5.2015007922241842e-03 to 5.2015007922241946e-03 seconds.
Warning: Simulation tolerance relaxed to achieve convergence from 5.2015007922250559e-03 to 5.2015007922250663e-03 seconds.
Warning: Simulation tolerance relaxed to achieve convergence from 5.2015007922251678e-03 to 5.2015007922251782e-03 seconds.
Warning: Simulation tolerance relaxed to achieve convergence from 5.2015007922251782e-03 to 5.2015007922251886e-03 seconds.
Warning: Simulation tolerance relaxed to achieve convergence from 5.2015007922253196e-03 to 5.2015007922253300e-03 seconds.
Warning: Simulation tolerance relaxed to achieve convergence from 5.2015007922254905e-03 to 5.2015007922255009e-03 seconds.
Warning: Simulation tolerance relaxed to achieve convergence from 5.2015007922255720e-03 to 5.2015007922255824e-03 seconds.
Warning: Simulation tolerance relaxed to achieve convergence from 5.2015007922256232e-03 to 5.2015007922256336e-03 seconds.
Warning: Simulation tolerance relaxed to achieve convergence from 5.2015007922257541e-03 to 5.2015007922257646e-03 seconds.
Warning: Simulation tolerance relaxed to achieve convergence from 5.2015007922260343e-03 to 5.2015007922260447e-03 seconds.
Warning: Simulation tolerance relaxed to achieve convergence from 5.2015007922261349e-03 to 5.2015007922261453e-03 seconds.
Warning: Simulation tolerance relaxed to achieve convergence from 5.2015007922262269e-03 to 5.2015007922262373e-03 seconds.
Warning: Simulation tolerance relaxed to achieve convergence from 5.2015007922265781e-03 to 5.2015007922265885e-03 seconds.
Warning: Simulation tolerance relaxed to achieve convergence from 5.2015007922266588e-03 to 5.2015007922266692e-03 seconds.
Warning: Simulation tolerance relaxed to achieve convergence from 5.2015007922266796e-03 to 5.2015007922266900e-03 seconds.
Warning: Simulation tolerance relaxed to achieve convergence from 5.2015007922419703e-03 to 5.2015007922419807e-03 seconds.
[...]
Warning: Simulation tolerance relaxed to achieve convergence from 5.2015009670886726e-03 to 5.2015009670886830e-03 seconds.
Warning: Simulation tolerance relaxed to achieve convergence from 5.2015009670886934e-03 to 5.2015009670887038e-03 seconds.
Warning: Simulation tolerance relaxed to achieve convergence from 5.2015009670888634e-03 to 5.2015009670888738e-03 seconds.
Warning: Simulation tolerance relaxed to achieve convergence from 5.2015009670891253e-03 to 5.2015009670891357e-03 seconds.
Warning: Simulation tolerance relaxed to achieve convergence from 5.2015009670891765e-03 to 5.2015009670891869e-03 seconds.
Warning: Simulation tolerance relaxed to achieve convergence from 5.2015009670892069e-03 to 5.2015009670892173e-03 seconds.
Warning: Simulation tolerance relaxed to achieve convergence from 5.2015009670892173e-03 to 5.2015009670892277e-03 seconds.
Warning: Simulation tolerance relaxed to achieve convergence from 5.2015009670892884e-03 to 5.2015009670892988e-03 seconds.
Warning: Simulation tolerance relaxed to achieve convergence from 5.2015009670895113e-03 to 5.2015009670895217e-03 seconds.
Warning: Simulation tolerance relaxed to achieve convergence from 5.2015009670896631e-03 to 5.2015009670896735e-03 seconds.
Warning: Simulation tolerance relaxed to achieve convergence from 5.2015009670896839e-03 to 5.2015009670896943e-03 seconds.
Warning: Simulation tolerance relaxed to achieve convergence from 5.2015009670897750e-03 to 5.2015009670897854e-03 seconds.
Warning: Simulation tolerance relaxed to achieve convergence from 5.2015009670897854e-03 to 5.2015009670897958e-03 seconds.
Warning: Simulation tolerance relaxed to achieve convergence from 5.2015009670897958e-03 to 5.2015009670898062e-03 seconds.
Warning: Simulation tolerance relaxed to achieve convergence from 5.2015009670898166e-03 to 5.2015009670898270e-03 seconds.
Warning: Simulation tolerance relaxed to achieve convergence from 5.2015009670901583e-03 to 5.2015009670901688e-03 seconds.
Warning: Simulation tolerance relaxed to achieve convergence from 5.2015009670901887e-03 to 5.2015009670901991e-03 seconds.
Warning: Simulation tolerance relaxed to achieve convergence from 5.2015009670901991e-03 to 5.2015009670902095e-03 seconds.
Warning: Simulation tolerance relaxed to achieve convergence from 5.2015009670909208e-03 to 5.2015009670909312e-03 seconds.
Warning: Simulation tolerance relaxed to achieve convergence from 5.2015009670909312e-03 to 5.2015009670909416e-03 seconds.
Warning: Simulation tolerance relaxed to achieve convergence from 5.2015009670909928e-03 to 5.2015009670910032e-03 seconds.
Warning: Simulation tolerance relaxed to achieve convergence from 5.2015009670910032e-03 to 5.2015009670910136e-03 seconds.
Warning: Simulation tolerance relaxed to achieve convergence from 5.2015009670917231e-03 to 5.2015009670917335e-03 seconds.
Warning: Simulation tolerance relaxed to achieve convergence from 5.2015009670920726e-03 to 5.2015009670920830e-03 seconds.
Warning: Simulation tolerance relaxed to achieve convergence from 5.2015009670920934e-03 to 5.2015009670921038e-03 seconds.
Warning: Simulation tolerance relaxed to achieve convergence from 5.2015009670923346e-03 to 5.2015009670923450e-03 seconds.
Warning: Simulation tolerance relaxed to achieve convergence from 5.2015009670932444e-03 to 5.2015009670932548e-03 seconds.
Warning: Simulation tolerance relaxed to achieve convergence from 5.2015009670932748e-03 to 5.2015009670932852e-03 seconds.
Warning: Simulation tolerance relaxed to achieve convergence from 5.2015009670934552e-03 to 5.2015009670934656e-03 seconds.
Warning: Simulation tolerance relaxed to achieve convergence from 5.2015009670935862e-03 to 5.2015009670935966e-03 seconds.
Warning: Simulation tolerance relaxed to achieve convergence from 5.2015009670936564e-03 to 5.2015009670936668e-03 seconds.
Warning: Simulation tolerance relaxed to achieve convergence from 5.2015009670945082e-03 to 5.2015009670945186e-03 seconds.
Warning: Simulation tolerance relaxed to achieve convergence from 5.2015009670947389e-03 to 5.2015009670947493e-03 seconds.
Warning: Simulation tolerance relaxed to achieve convergence from 5.2015009670947797e-03 to 5.2015009670947901e-03 seconds.
Warning: Simulation tolerance relaxed to achieve convergence from 5.2015009670948707e-03 to 5.2015009670948811e-03 seconds.
Warning: Simulation tolerance relaxed to achieve convergence from 5.2015009670949627e-03 to 5.2015009670949731e-03 seconds.
Warning: Simulation tolerance relaxed to achieve convergence from 5.2015009670951639e-03 to 5.2015009670951743e-03 seconds.
Warning: Simulation tolerance relaxed to achieve convergence from 5.2015009670951743e-03 to 5.2015009670951847e-03 seconds.
Warning: Simulation tolerance relaxed to achieve convergence from 5.2015009671002544e-03 to 5.2015009671002648e-03 seconds.
Warning: Simulation tolerance relaxed to achieve convergence from 5.2015009671002648e-03 to 5.2015009671002753e-03 seconds.
Warning: Simulation tolerance relaxed to achieve convergence from 5.2015009671008946e-03 to 5.2015009671009050e-03 seconds.
Warning: Simulation tolerance relaxed to achieve convergence from 5.2015009671009362e-03 to 5.2015009671009466e-03 seconds.
Warning: Simulation tolerance relaxed to achieve convergence from 5.2015009671035669e-03 to 5.2015009671035773e-03 seconds.
Warning: Simulation tolerance relaxed to achieve convergence from 5.2015009671036372e-03 to 5.2015009671036476e-03 seconds.
Warning: Simulation tolerance relaxed to achieve convergence from 5.2015009671036675e-03 to 5.2015009671036779e-03 seconds.
Warning: Simulation tolerance relaxed to achieve convergence from 5.2015009671036779e-03 to 5.2015009671036883e-03 seconds.
Warning: Simulation tolerance relaxed to achieve convergence from 5.2015009671036883e-03 to 5.2015009671036987e-03 seconds.
Warning: Simulation tolerance relaxed to achieve convergence from 5.2015009671037490e-03 to 5.2015009671037594e-03 seconds.
Warning: Simulation tolerance relaxed to achieve convergence from 5.2015009671037699e-03 to 5.2015009671037803e-03 seconds.
Warning: Simulation tolerance relaxed to achieve convergence from 5.2015009671038809e-03 to 5.2015009671038913e-03 seconds.
Warning: Simulation tolerance relaxed to achieve convergence from 5.2015009703345908e-03 to 5.2015009703346013e-03 seconds.
Warning: Simulation tolerance relaxed to achieve convergence from 5.2015009703346013e-03 to 5.2015009703346117e-03 seconds.
Warning: Simulation tolerance relaxed to achieve convergence from 5.2015009703347426e-03 to 5.2015009703347530e-03 seconds.
Warning: Simulation tolerance relaxed to achieve convergence from 5.2015009703348736e-03 to 5.2015009703348840e-03 seconds.
Warning: Simulation tolerance relaxed to achieve convergence from 5.2015009703348840e-03 to 5.2015009703348944e-03 seconds.
Warning: Simulation tolerance relaxed to achieve convergence from 5.2015009703349846e-03 to 5.2015009703349950e-03 seconds.
Warning: Simulation tolerance relaxed to achieve convergence from 5.2015009703351347e-03 to 5.2015009703351451e-03 seconds.
Warning: Simulation tolerance relaxed to achieve convergence from 5.2015009703352258e-03 to 5.2015009703352362e-03 seconds.
Warning: Simulation tolerance relaxed to achieve convergence from 5.2015009703354365e-03 to 5.2015009703354469e-03 seconds.
Warning: Simulation tolerance relaxed to achieve convergence from 5.2015009703355172e-03 to 5.2015009703355276e-03 seconds.
Warning: Simulation tolerance relaxed to achieve convergence from 5.2015009703355484e-03 to 5.2015009703355588e-03 seconds.
Warning: Simulation tolerance relaxed to achieve convergence from 5.2015009703360003e-03 to 5.2015009703360107e-03 seconds.
Warning: Simulation tolerance relaxed to achieve convergence from 5.2015009703364010e-03 to 5.2015009703364114e-03 seconds.
Warning: Simulation tolerance relaxed to achieve convergence from 5.2015009703369327e-03 to 5.2015009703369431e-03 seconds.
Warning: Simulation tolerance relaxed to achieve convergence from 5.2015009703369839e-03 to 5.2015009703369943e-03 seconds.
Warning: Simulation tolerance relaxed to achieve convergence from 5.2015009703372354e-03 to 5.2015009703372458e-03 seconds.
Warning: Simulation tolerance relaxed to achieve convergence from 5.2015009703372762e-03 to 5.2015009703372866e-03 seconds.
Warning: Simulation tolerance relaxed to achieve convergence from 5.2015009703383170e-03 to 5.2015009703383274e-03 seconds.
Warning: Simulation tolerance relaxed to achieve convergence from 5.2015009703383474e-03 to 5.2015009703383578e-03 seconds.
Warning: Simulation tolerance relaxed to achieve convergence from 5.2015009703386380e-03 to 5.2015009703386484e-03 seconds.
Warning: Simulation tolerance relaxed to achieve convergence from 5.2015009703415375e-03 to 5.2015009703415480e-03 seconds.
Warning: Simulation tolerance relaxed to achieve convergence from 5.2015009703416078e-03 to 5.2015009703416182e-03 seconds.
Warning: Simulation tolerance relaxed to achieve convergence from 5.2015009703417483e-03 to 5.2015009703417587e-03 seconds.
Warning: Simulation tolerance relaxed to achieve convergence from 5.2015009703418186e-03 to 5.2015009703418290e-03 seconds.
Warning: Simulation tolerance relaxed to achieve convergence from 5.2015009703419296e-03 to 5.2015009703419400e-03 seconds.
Warning: Simulation tolerance relaxed to achieve convergence from 5.2015009703420311e-03 to 5.2015009703420415e-03 seconds.
Warning: Simulation tolerance relaxed to achieve convergence from 5.2015009703420718e-03 to 5.2015009703420823e-03 seconds.
Warning: Simulation tolerance relaxed to achieve convergence from 5.2015009703421629e-03 to 5.2015009703421733e-03 seconds.
Warning: Simulation tolerance relaxed to achieve convergence from 5.2015009703421733e-03 to 5.2015009703421837e-03 seconds.
Warning: Simulation tolerance relaxed to achieve convergence from 5.2015009703422549e-03 to 5.2015009703422653e-03 seconds.
Warning: Simulation tolerance relaxed to achieve convergence from 5.2015009703423251e-03 to 5.2015009703423355e-03 seconds.
Warning: Simulation tolerance relaxed to achieve convergence from 5.2015009703423659e-03 to 5.2015009703423763e-03 seconds.
Warning: Simulation tolerance relaxed to achieve convergence from 5.2015009703423763e-03 to 5.2015009703423867e-03 seconds.
Warning: Simulation tolerance relaxed to achieve convergence from 5.2015009703425272e-03 to 5.2015009703425376e-03 seconds.
Warning: Simulation tolerance relaxed to achieve convergence from 5.2015009703425376e-03 to 5.2015009703425480e-03 seconds.
Warning: Simulation tolerance relaxed to achieve convergence from 5.2015009703426079e-03 to 5.2015009703426183e-03 seconds.
Warning: Simulation tolerance relaxed to achieve convergence from 5.2015009703426989e-03 to 5.2015009703427094e-03 seconds.
Warning: Simulation tolerance relaxed to achieve convergence from 5.2015009703429297e-03 to 5.2015009703429401e-03 seconds.
Warning: Simulation tolerance relaxed to achieve convergence from 5.2015009703429600e-03 to 5.2015009703429704e-03 seconds.
Warning: Simulation tolerance relaxed to achieve convergence from 5.2015009703430303e-03 to 5.2015009703430407e-03 seconds.
Warning: Simulation tolerance relaxed to achieve convergence from 5.2015009703430511e-03 to 5.2015009703430615e-03 seconds.
Warning: Simulation tolerance relaxed to achieve convergence from 5.2015009703430815e-03 to 5.2015009703430919e-03 seconds.
Warning: Simulation tolerance relaxed to achieve convergence from 5.2015009703431326e-03 to 5.2015009703431430e-03 seconds.
Warning: Simulation tolerance relaxed to achieve convergence from 5.2015009703432133e-03 to 5.2015009703432237e-03 seconds.
Warning: Simulation tolerance relaxed to achieve convergence from 5.2015009703433842e-03 to 5.2015009703433946e-03 seconds.
Warning: Simulation tolerance relaxed to achieve convergence from 5.2015009703434145e-03 to 5.2015009703434249e-03 seconds.
Warning: Simulation tolerance relaxed to achieve convergence from 5.2015009703434449e-03 to 5.2015009703434553e-03 seconds.
Warning: Simulation tolerance relaxed to achieve convergence from 5.2015009703434856e-03 to 5.2015009703434961e-03 seconds.
Warning: Simulation tolerance relaxed to achieve convergence from 5.2015009703434961e-03 to 5.2015009703435065e-03 seconds.
Warning: Simulation tolerance relaxed to achieve convergence from 5.2015009703435065e-03 to 5.2015009703435169e-03 seconds.
Warning: Simulation tolerance relaxed to achieve convergence from 5.2015009703439384e-03 to 5.2015009703439488e-03 seconds.
Warning: Simulation tolerance relaxed to achieve convergence from 5.2015009703439696e-03 to 5.2015009703439800e-03 seconds.
Warning: Simulation tolerance relaxed to achieve convergence from 5.2015009703440000e-03 to 5.2015009703440104e-03 seconds.
Warning: Simulation tolerance relaxed to achieve convergence from 5.2015009703440104e-03 to 5.2015009703440208e-03 seconds.
Warning: Simulation tolerance relaxed to achieve convergence from 5.2015009703440208e-03 to 5.2015009703440312e-03 seconds.
Warning: Simulation tolerance relaxed to achieve convergence from 5.2015009703443617e-03 to 5.2015009703443721e-03 seconds.
Warning: Simulation tolerance relaxed to achieve convergence from 5.2015009703444328e-03 to 5.2015009703444432e-03 seconds.
Warning: Simulation tolerance relaxed to achieve convergence from 5.2015009703444432e-03 to 5.2015009703444536e-03 seconds.
Warning: Simulation tolerance relaxed to achieve convergence from 5.2015009703444840e-03 to 5.2015009703444944e-03 seconds.
Warning: Simulation tolerance relaxed to achieve convergence from 5.2015009703447754e-03 to 5.2015009703447858e-03 seconds.
Warning: Simulation tolerance relaxed to achieve convergence from 5.2015009703448760e-03 to 5.2015009703448864e-03 seconds.
Warning: Simulation tolerance relaxed to achieve convergence from 5.2015009703452264e-03 to 5.2015009703452368e-03 seconds.
Warning: Simulation tolerance relaxed to achieve convergence from 5.2015009703452568e-03 to 5.2015009703452672e-03 seconds.
Warning: Simulation tolerance relaxed to achieve convergence from 5.2015009703457070e-03 to 5.2015009703457174e-03 seconds.
Warning: Simulation tolerance relaxed to achieve convergence from 5.2015009722367386e-03 to 5.2015009722367490e-03 seconds.
Warning: Simulation tolerance relaxed to achieve convergence from 5.2015009722516789e-03 to 5.2015009722516893e-03 seconds.
Warning: Simulation tolerance relaxed to achieve convergence from 5.2015009722517699e-03 to 5.2015009722517803e-03 seconds.
Warning: Simulation tolerance relaxed to achieve convergence from 5.2015009722517803e-03 to 5.2015009722517908e-03 seconds.
Warning: Simulation tolerance relaxed to achieve convergence from 5.2015009722517908e-03 to 5.2015009722518012e-03 seconds.
Warning: Simulation tolerance relaxed to achieve convergence from 5.2015009722518012e-03 to 5.2015009722518116e-03 seconds.
Warning: Simulation tolerance relaxed to achieve convergence from 5.2015009722521108e-03 to 5.2015009722521212e-03 seconds.
Warning: Simulation tolerance relaxed to achieve convergence from 5.2015009722521412e-03 to 5.2015009722521516e-03 seconds.
Warning: Simulation tolerance relaxed to achieve convergence from 5.2015009722521516e-03 to 5.2015009722521620e-03 seconds.
Warning: Simulation tolerance relaxed to achieve convergence from 5.2015009722529235e-03 to 5.2015009722529339e-03 seconds.
Warning: Simulation tolerance relaxed to achieve convergence from 5.2015009722529339e-03 to 5.2015009722529443e-03 seconds.
Warning: Simulation tolerance relaxed to achieve convergence from 5.2015009722529747e-03 to 5.2015009722529851e-03 seconds.
Warning: Simulation tolerance relaxed to achieve convergence from 5.2015009722530155e-03 to 5.2015009722530259e-03 seconds.
Warning: Simulation tolerance relaxed to achieve convergence from 5.2015009722537848e-03 to 5.2015009722537952e-03 seconds.
Warning: Simulation tolerance relaxed to achieve convergence from 5.2015009722538854e-03 to 5.2015009722538958e-03 seconds.
Warning: Simulation tolerance relaxed to achieve convergence from 5.2015009722538958e-03 to 5.2015009722539063e-03 seconds.
Warning: Simulation tolerance relaxed to achieve convergence from 5.2015009722539262e-03 to 5.2015009722539366e-03 seconds.
Warning: Simulation tolerance relaxed to achieve convergence from 5.2015009722542081e-03 to 5.2015009722542185e-03 seconds.
Warning: Simulation tolerance relaxed to achieve convergence from 5.2015009722542185e-03 to 5.2015009722542289e-03 seconds.
Warning: Simulation tolerance relaxed to achieve convergence from 5.2015009722542289e-03 to 5.2015009722542393e-03 seconds.
Warning: Simulation tolerance relaxed to achieve convergence from 5.2015009722542393e-03 to 5.2015009722542497e-03 seconds.
Warning: Simulation tolerance relaxed to achieve convergence from 5.2015009722542497e-03 to 5.2015009722542601e-03 seconds.
Warning: Simulation tolerance relaxed to achieve convergence from 5.2015009722542601e-03 to 5.2015009722542705e-03 seconds.
Warning: Simulation tolerance relaxed to achieve convergence from 5.2015009722543920e-03 to 5.2015009722544024e-03 seconds.
Warning: Simulation tolerance relaxed to achieve convergence from 5.2015009722544024e-03 to 5.2015009722544128e-03 seconds.
Warning: Simulation tolerance relaxed to achieve convergence from 5.2015009722545143e-03 to 5.2015009722545247e-03 seconds.
Warning: Simulation tolerance relaxed to achieve convergence from 5.2015009722545446e-03 to 5.2015009722545550e-03 seconds.
Warning: Simulation tolerance relaxed to achieve convergence from 5.2015009722552047e-03 to 5.2015009722552151e-03 seconds.
Warning: Simulation tolerance relaxed to achieve convergence from 5.2015009722552749e-03 to 5.2015009722552854e-03 seconds.
Warning: Simulation tolerance relaxed to achieve convergence from 5.2015009722554250e-03 to 5.2015009722554354e-03 seconds.
Warning: Simulation tolerance relaxed to achieve convergence from 5.2015009722554354e-03 to 5.2015009722554458e-03 seconds.
Warning: Simulation tolerance relaxed to achieve convergence from 5.2015009722555065e-03 to 5.2015009722555169e-03 seconds.
Warning: Simulation tolerance relaxed to achieve convergence from 5.2015009722555169e-03 to 5.2015009722555273e-03 seconds.
Warning: Simulation tolerance relaxed to achieve convergence from 5.2015009722555273e-03 to 5.2015009722555378e-03 seconds.
Warning: Simulation tolerance relaxed to achieve convergence from 5.2015009722555785e-03 to 5.2015009722555889e-03 seconds.
Warning: Simulation tolerance relaxed to achieve convergence from 5.2015009722555889e-03 to 5.2015009722555993e-03 seconds.
Warning: Simulation tolerance relaxed to achieve convergence from 5.2015009722773094e-03 to 5.2015009722773198e-03 seconds.
Warning: Simulation tolerance relaxed to achieve convergence from 5.2015009722779695e-03 to 5.2015009722779799e-03 seconds.
Warning: Simulation tolerance relaxed to achieve convergence from 5.2015009722781195e-03 to 5.2015009722781299e-03 seconds.
Warning: Simulation tolerance relaxed to achieve convergence from 5.2015009722781299e-03 to 5.2015009722781403e-03 seconds.
Warning: Simulation tolerance relaxed to achieve convergence from 5.2015009722781603e-03 to 5.2015009722781707e-03 seconds.
Warning: Simulation tolerance relaxed to achieve convergence from 5.2015009722784517e-03 to 5.2015009722784621e-03 seconds.
Warning: Simulation tolerance relaxed to achieve convergence from 5.2015009722786018e-03 to 5.2015009722786122e-03 seconds.
Warning: Simulation tolerance relaxed to achieve convergence from 5.2015009722787622e-03 to 5.2015009722787622e-03 seconds.

Simulation stopped by user.
Total elapsed time: 23.164 seconds.

Files loaded:
C:\Users\herra\Desktop\ASSD\TP1\TP1-ASSD\Simulaciones\Draft1.net
C:\Users\herra\AppData\Local\LTspice\lib\cmp\standard.dio
C:\Users\herra\AppData\Local\LTspice\lib\cmp\standard.bjt
C:\Users\herra\AppData\Local\LTspice\lib\sub\TCLib\vcc.lib

