LTspice 24.1.9 for Windows
Circuit: C:\Users\herra\Desktop\ASSD\TP1\TP1-ASSD\Simulaciones\Draft3.net
Start Time: Tue Apr 14 00:03:20 2026
solver = Normal
Maximum thread count: 16
tnom = 27
temp = 27
method = modified trap
.step 
Total elapsed time: 0.122 seconds.

Files loaded:
C:\Users\herra\Desktop\ASSD\TP1\TP1-ASSD\Simulaciones\Draft3.net
C:\Users\herra\AppData\Local\LTspice\lib\cmp\standard.dio
C:\Users\herra\AppData\Local\LTspice\lib\cmp\standard.bjt
C:\Users\herra\AppData\Local\LTspice\lib\sub\TCLib\vcc.lib

