LTspice 24.1.9 for Windows
Circuit: C:\Users\herra\Desktop\ASSD\TP1\TP1-ASSD\Simulaciones\PNP_design.net
Start Time: Tue Apr 14 00:17:35 2026
solver = Normal
Maximum thread count: 16
tnom = 27
temp = 27
method = modified trap
Direct Newton iteration for .op point succeeded.
Total elapsed time: 8.534 seconds.

Files loaded:
C:\Users\herra\Desktop\ASSD\TP1\TP1-ASSD\Simulaciones\PNP_design.net
C:\Users\herra\AppData\Local\LTspice\lib\cmp\standard.dio
C:\Users\herra\AppData\Local\LTspice\lib\cmp\standard.bjt
C:\Users\herra\AppData\Local\LTspice\lib\sub\TCLib\vcc.lib

